 ****** HSPICE -- M-2017.03-SP2-2 linux64 (Oct 30 2017) ******                  
  Copyright (c) 1986 - 2021 by Synopsys, Inc. All Rights Reserved.              
  This software and the associated documentation are proprietary
  to Synopsys, Inc. This software may only be used in accordance
  with the terms and conditions of a written license agreement with
  Synopsys, Inc. All other use, reproduction, or distribution of
  this software is strictly prohibited.
  Input File: hspice2.sp
  Command line options: /home/cad/tools/synopsys/hspice/latest/hspice/linux64/hspice -i hspice2.sp -o hspice2.lis
 lic:
 lic: FLEXlm: SDK_11.6.4
 lic: USER:   ntak                 HOSTNAME: laplace.takai-lab.el.gunma-u.ac.jp
 lic: HOSTID: "6cae8b772444"       PID:      42059
 lic: Using FLEXlm license file:
 lic: 1700@vdec-cad1
 lic: Checkout 1 hspice
 lic: License/Maintenance for hspice will expire on 31-mar-2021/2020.03
 lic: 17(in_use)/180(total) FLOATING license(s) on SERVER 1700@vdec-cad1
 lic:
  **warning** (../Sp_Data/OPamp.sp:4) unknown command ".csparam" is ignored
1****** HSPICE -- M-2017.03-SP2-2 linux64 (Oct 30 2017) ******
 ******
 .title testbench for hspice

 ****** circuit name directory
 circuit number to circuit name directory
   number circuitname                     definition         multiplier
        0 main circuit
        1 x1a.                            opamp              1.00
        2 x1b.                            opamp              1.00
        3 x1c.                            opamp              1.00


 Warning: Pd = 0 is less than Weff = 3.78423e-06 in BSIM3 model 0:cmosn element m1 with W = 3.79e-06, L = 2e-06



 *****************************************************************
 ******  option summary
 ******
 runlvl  = 3         bypass  = 2.00000
  Opening plot unit= 15
 file=hspice2.pa0

  *** pseudo tran succeeded ***
 ******
 .title testbench for hspice

 ****** operating point information tnom=  25.000 temp=  25.000 ******
 ****** operating point status is voltage   simulation time is   0.0000e+00
    node    =voltage       node    =voltage       node    =voltage

 +0:in1     =-6.0000e-01 0:in2     = 6.0000e-01 0:inm1    =-5.9964e-01
 +0:inm2    = 5.9826e-01 0:inm3    =-2.7611e-04 0:os      =-5.5223e-04
 +0:out1    =-1.1992e+00 0:out2    = 1.1965e+00 0:vdd     = 1.5000e+00
 +0:vss     =-1.5000e+00 1:n001    = 6.4688e-01 1:n002    = 7.0422e-01
 +1:n003    =-1.2116e+00 1:n005    =-9.8950e-01 2:n001    = 6.3282e-01
 +2:n002    = 4.2169e-01 2:n003    =-2.3886e-02 2:n005    =-9.8950e-01
 +3:n001    = 6.3885e-01 3:n002    = 5.9594e-01 3:n003    =-6.1765e-01
 +3:n005    =-9.8950e-01

 ******
 .title testbench for hspice

 ****** transient analysis tnom=  25.000 temp=  25.000 ******
x

 time          voltage     voltage     voltage
              in1         out1        out2
                          os          os
  0.00000e+00 -6.0000e-01 -1.1987e+00  1.1971e+00
  1.00000e-08 -6.0000e-01 -1.1987e+00  1.1971e+00
  2.00000e-08 -6.0000e-01 -1.1987e+00  1.1971e+00
  3.00000e-08 -6.0000e-01 -1.1987e+00  1.1971e+00
  4.00000e-08 -6.0000e-01 -1.1987e+00  1.1971e+00
  5.00000e-08 -6.0000e-01 -1.1987e+00  1.1971e+00
  6.00000e-08 -6.0000e-01 -1.1987e+00  1.1971e+00
  7.00000e-08 -6.0000e-01 -1.1987e+00  1.1971e+00
  8.00000e-08 -6.0000e-01 -1.1987e+00  1.1971e+00
  9.00000e-08 -6.0000e-01 -1.1987e+00  1.1971e+00
  1.00000e-07 -6.0000e-01 -1.1987e+00  1.1971e+00
  1.10000e-07  6.0000e-01 -9.2508e-01  1.0838e+00
  1.20000e-07  6.0000e-01 -4.4372e-01  7.7761e-01
  1.30000e-07  6.0000e-01  1.5402e-01  4.5379e-01
  1.40000e-07  6.0000e-01  7.7438e-01  1.3789e-01
  1.50000e-07  6.0000e-01  1.1233e+00 -1.7206e-01
  1.60000e-07  6.0000e-01  1.1901e+00 -4.7616e-01
  1.70000e-07  6.0000e-01  1.2140e+00 -7.6967e-01
  1.80000e-07  6.0000e-01  1.2230e+00 -1.0234e+00
  1.90000e-07  6.0000e-01  1.2237e+00 -1.1837e+00
  2.00000e-07  6.0000e-01  1.2219e+00 -1.2623e+00
  2.10000e-07  6.0000e-01  1.2207e+00 -1.2824e+00
  2.20000e-07  6.0000e-01  1.2158e+00 -1.2556e+00
  2.30000e-07  6.0000e-01  1.2120e+00 -1.2308e+00
  2.40000e-07  6.0000e-01  1.2101e+00 -1.2096e+00
  2.50000e-07  6.0000e-01  1.2076e+00 -1.1974e+00
  2.60000e-07  6.0000e-01  1.2043e+00 -1.1936e+00
  2.70000e-07  6.0000e-01  1.2024e+00 -1.1929e+00
  2.80000e-07  6.0000e-01  1.2018e+00 -1.1949e+00
  2.90000e-07  6.0000e-01  1.2011e+00 -1.1969e+00
  3.00000e-07  6.0000e-01  1.2005e+00 -1.1990e+00
  3.10000e-07  6.0000e-01  1.1995e+00 -1.1993e+00
  3.20000e-07  6.0000e-01  1.1986e+00 -1.1995e+00
  3.30000e-07  6.0000e-01  1.1976e+00 -1.1997e+00
  3.40000e-07  6.0000e-01  1.1970e+00 -1.1997e+00
  3.50000e-07  6.0000e-01  1.1972e+00 -1.1994e+00
  3.60000e-07  6.0000e-01  1.1974e+00 -1.1991e+00
  3.70000e-07  6.0000e-01  1.1976e+00 -1.1988e+00
  3.80000e-07  6.0000e-01  1.1978e+00 -1.1985e+00
  3.90000e-07  6.0000e-01  1.1980e+00 -1.1982e+00
  4.00000e-07  6.0000e-01  1.1981e+00 -1.1980e+00
  4.10000e-07  6.0000e-01  1.1979e+00 -1.1981e+00
  4.20000e-07  6.0000e-01  1.1977e+00 -1.1983e+00
  4.30000e-07  6.0000e-01  1.1975e+00 -1.1984e+00
  4.40000e-07  6.0000e-01  1.1973e+00 -1.1985e+00
  4.50000e-07  6.0000e-01  1.1971e+00 -1.1986e+00
  4.60000e-07  6.0000e-01  1.1969e+00 -1.1988e+00
  4.70000e-07  6.0000e-01  1.1967e+00 -1.1989e+00
  4.80000e-07  6.0000e-01  1.1965e+00 -1.1990e+00
  4.90000e-07  6.0000e-01  1.1963e+00 -1.1991e+00
  5.00000e-07  6.0000e-01  1.1963e+00 -1.1992e+00
  5.10000e-07  6.0000e-01  1.1964e+00 -1.1991e+00
  5.20000e-07  6.0000e-01  1.1965e+00 -1.1990e+00
  5.30000e-07  6.0000e-01  1.1967e+00 -1.1990e+00
  5.40000e-07  6.0000e-01  1.1968e+00 -1.1989e+00
  5.50000e-07  6.0000e-01  1.1969e+00 -1.1989e+00
  5.60000e-07  6.0000e-01  1.1971e+00 -1.1988e+00
  5.70000e-07  6.0000e-01  1.1972e+00 -1.1988e+00
  5.80000e-07  6.0000e-01  1.1973e+00 -1.1987e+00
  5.90000e-07  6.0000e-01  1.1974e+00 -1.1987e+00
  6.00000e-07  6.0000e-01  1.1976e+00 -1.1986e+00
  6.10000e-07  6.0000e-01  1.1977e+00 -1.1986e+00
  6.20000e-07  6.0000e-01  1.1978e+00 -1.1985e+00
  6.30000e-07  6.0000e-01  1.1979e+00 -1.1985e+00
  6.40000e-07  6.0000e-01  1.1980e+00 -1.1984e+00
  6.50000e-07  6.0000e-01  1.1980e+00 -1.1984e+00
  6.60000e-07  6.0000e-01  1.1979e+00 -1.1985e+00
  6.70000e-07  6.0000e-01  1.1978e+00 -1.1985e+00
  6.80000e-07  6.0000e-01  1.1977e+00 -1.1985e+00
  6.90000e-07  6.0000e-01  1.1976e+00 -1.1985e+00
  7.00000e-07  6.0000e-01  1.1976e+00 -1.1986e+00
  7.10000e-07  6.0000e-01  1.1975e+00 -1.1986e+00
  7.20000e-07  6.0000e-01  1.1974e+00 -1.1986e+00
  7.30000e-07  6.0000e-01  1.1973e+00 -1.1986e+00
  7.40000e-07  6.0000e-01  1.1972e+00 -1.1987e+00
  7.50000e-07  6.0000e-01  1.1971e+00 -1.1987e+00
  7.60000e-07  6.0000e-01  1.1971e+00 -1.1987e+00
  7.70000e-07  6.0000e-01  1.1970e+00 -1.1987e+00
  7.80000e-07  6.0000e-01  1.1969e+00 -1.1987e+00
  7.90000e-07  6.0000e-01  1.1968e+00 -1.1988e+00
  8.00000e-07  6.0000e-01  1.1967e+00 -1.1988e+00
  8.10000e-07  6.0000e-01  1.1966e+00 -1.1988e+00
  8.20000e-07  6.0000e-01  1.1966e+00 -1.1988e+00
  8.30000e-07  6.0000e-01  1.1965e+00 -1.1989e+00
  8.40000e-07  6.0000e-01  1.1964e+00 -1.1989e+00
  8.50000e-07  6.0000e-01  1.1963e+00 -1.1989e+00
  8.60000e-07  6.0000e-01  1.1962e+00 -1.1989e+00
  8.70000e-07  6.0000e-01  1.1962e+00 -1.1989e+00
  8.80000e-07  6.0000e-01  1.1963e+00 -1.1989e+00
  8.90000e-07  6.0000e-01  1.1963e+00 -1.1989e+00
  9.00000e-07  6.0000e-01  1.1964e+00 -1.1989e+00
  9.10000e-07  6.0000e-01  1.1964e+00 -1.1989e+00
  9.20000e-07  6.0000e-01  1.1965e+00 -1.1989e+00
  9.30000e-07  6.0000e-01  1.1965e+00 -1.1989e+00
  9.40000e-07  6.0000e-01  1.1966e+00 -1.1989e+00
  9.50000e-07  6.0000e-01  1.1966e+00 -1.1989e+00
  9.60000e-07  6.0000e-01  1.1967e+00 -1.1988e+00
  9.70000e-07  6.0000e-01  1.1967e+00 -1.1988e+00
  9.80000e-07  6.0000e-01  1.1968e+00 -1.1988e+00
  9.90000e-07  6.0000e-01  1.1968e+00 -1.1988e+00
  1.00000e-06  6.0000e-01  1.1969e+00 -1.1988e+00
  1.01000e-06  6.0000e-01  1.1969e+00 -1.1988e+00
  1.02000e-06  6.0000e-01  1.1970e+00 -1.1988e+00
  1.03000e-06  6.0000e-01  1.1970e+00 -1.1988e+00
  1.04000e-06  6.0000e-01  1.1971e+00 -1.1988e+00
  1.05000e-06  6.0000e-01  1.1971e+00 -1.1987e+00
  1.06000e-06  6.0000e-01  1.1972e+00 -1.1987e+00
  1.07000e-06  6.0000e-01  1.1972e+00 -1.1987e+00
  1.08000e-06  6.0000e-01  1.1973e+00 -1.1987e+00
  1.09000e-06  6.0000e-01  1.1973e+00 -1.1987e+00
  1.10000e-06  6.0000e-01  1.1974e+00 -1.1987e+00
  1.11000e-06  6.0000e-01  1.1974e+00 -1.1987e+00
  1.12000e-06  6.0000e-01  1.1975e+00 -1.1987e+00
  1.13000e-06  6.0000e-01  1.1975e+00 -1.1987e+00
  1.14000e-06  6.0000e-01  1.1976e+00 -1.1987e+00
  1.15000e-06  6.0000e-01  1.1976e+00 -1.1986e+00
  1.16000e-06  6.0000e-01  1.1977e+00 -1.1986e+00
  1.17000e-06  6.0000e-01  1.1977e+00 -1.1986e+00
  1.18000e-06  6.0000e-01  1.1978e+00 -1.1986e+00
  1.19000e-06  6.0000e-01  1.1978e+00 -1.1986e+00
  1.20000e-06  6.0000e-01  1.1979e+00 -1.1986e+00
  1.21000e-06  6.0000e-01  1.1979e+00 -1.1986e+00
  1.22000e-06  6.0000e-01  1.1980e+00 -1.1986e+00
  1.23000e-06  6.0000e-01  1.1980e+00 -1.1986e+00
  1.24000e-06  6.0000e-01  1.1980e+00 -1.1986e+00
  1.25000e-06  6.0000e-01  1.1980e+00 -1.1986e+00
  1.26000e-06  6.0000e-01  1.1979e+00 -1.1986e+00
  1.27000e-06  6.0000e-01  1.1979e+00 -1.1986e+00
  1.28000e-06  6.0000e-01  1.1979e+00 -1.1986e+00
  1.29000e-06  6.0000e-01  1.1978e+00 -1.1986e+00
  1.30000e-06  6.0000e-01  1.1978e+00 -1.1986e+00
  1.31000e-06  6.0000e-01  1.1978e+00 -1.1986e+00
  1.32000e-06  6.0000e-01  1.1977e+00 -1.1986e+00
  1.33000e-06  6.0000e-01  1.1977e+00 -1.1986e+00
  1.34000e-06  6.0000e-01  1.1977e+00 -1.1986e+00
  1.35000e-06  6.0000e-01  1.1976e+00 -1.1986e+00
  1.36000e-06  6.0000e-01  1.1976e+00 -1.1986e+00
  1.37000e-06  6.0000e-01  1.1976e+00 -1.1986e+00
  1.38000e-06  6.0000e-01  1.1975e+00 -1.1986e+00
  1.39000e-06  6.0000e-01  1.1975e+00 -1.1986e+00
  1.40000e-06  6.0000e-01  1.1975e+00 -1.1986e+00
  1.41000e-06  6.0000e-01  1.1974e+00 -1.1987e+00
  1.42000e-06  6.0000e-01  1.1974e+00 -1.1987e+00
  1.43000e-06  6.0000e-01  1.1974e+00 -1.1987e+00
  1.44000e-06  6.0000e-01  1.1973e+00 -1.1987e+00
  1.45000e-06  6.0000e-01  1.1973e+00 -1.1987e+00
  1.46000e-06  6.0000e-01  1.1973e+00 -1.1987e+00
  1.47000e-06  6.0000e-01  1.1972e+00 -1.1987e+00
  1.48000e-06  6.0000e-01  1.1972e+00 -1.1987e+00
  1.49000e-06  6.0000e-01  1.1972e+00 -1.1987e+00
  1.50000e-06  6.0000e-01  1.1971e+00 -1.1987e+00
  1.51000e-06  6.0000e-01  1.1971e+00 -1.1987e+00
  1.52000e-06  6.0000e-01  1.1971e+00 -1.1987e+00
  1.53000e-06  6.0000e-01  1.1970e+00 -1.1987e+00
  1.54000e-06  6.0000e-01  1.1970e+00 -1.1987e+00
  1.55000e-06  6.0000e-01  1.1970e+00 -1.1987e+00
  1.56000e-06  6.0000e-01  1.1969e+00 -1.1987e+00
  1.57000e-06  6.0000e-01  1.1969e+00 -1.1987e+00
  1.58000e-06  6.0000e-01  1.1969e+00 -1.1987e+00
  1.59000e-06  6.0000e-01  1.1968e+00 -1.1988e+00
  1.60000e-06  6.0000e-01  1.1968e+00 -1.1988e+00
  1.61000e-06  6.0000e-01  1.1968e+00 -1.1988e+00
  1.62000e-06  6.0000e-01  1.1968e+00 -1.1988e+00
  1.63000e-06  6.0000e-01  1.1967e+00 -1.1988e+00
  1.64000e-06  6.0000e-01  1.1967e+00 -1.1988e+00
  1.65000e-06  6.0000e-01  1.1967e+00 -1.1988e+00
  1.66000e-06  6.0000e-01  1.1966e+00 -1.1988e+00
  1.67000e-06  6.0000e-01  1.1966e+00 -1.1988e+00
  1.68000e-06  6.0000e-01  1.1966e+00 -1.1988e+00
  1.69000e-06  6.0000e-01  1.1965e+00 -1.1988e+00
  1.70000e-06  6.0000e-01  1.1965e+00 -1.1988e+00
  1.71000e-06  6.0000e-01  1.1965e+00 -1.1988e+00
  1.72000e-06  6.0000e-01  1.1964e+00 -1.1988e+00
  1.73000e-06  6.0000e-01  1.1964e+00 -1.1988e+00
  1.74000e-06  6.0000e-01  1.1964e+00 -1.1988e+00
  1.75000e-06  6.0000e-01  1.1963e+00 -1.1988e+00
  1.76000e-06  6.0000e-01  1.1963e+00 -1.1988e+00
  1.77000e-06  6.0000e-01  1.1963e+00 -1.1989e+00
  1.78000e-06  6.0000e-01  1.1962e+00 -1.1989e+00
  1.79000e-06  6.0000e-01  1.1962e+00 -1.1989e+00
  1.80000e-06  6.0000e-01  1.1962e+00 -1.1989e+00
  1.81000e-06  6.0000e-01  1.1962e+00 -1.1989e+00
  1.82000e-06  6.0000e-01  1.1962e+00 -1.1989e+00
  1.83000e-06  6.0000e-01  1.1962e+00 -1.1989e+00
  1.84000e-06  6.0000e-01  1.1963e+00 -1.1989e+00
  1.85000e-06  6.0000e-01  1.1963e+00 -1.1989e+00
  1.86000e-06  6.0000e-01  1.1963e+00 -1.1988e+00
  1.87000e-06  6.0000e-01  1.1963e+00 -1.1988e+00
  1.88000e-06  6.0000e-01  1.1963e+00 -1.1988e+00
  1.89000e-06  6.0000e-01  1.1964e+00 -1.1988e+00
  1.90000e-06  6.0000e-01  1.1964e+00 -1.1988e+00
  1.91000e-06  6.0000e-01  1.1964e+00 -1.1988e+00
  1.92000e-06  6.0000e-01  1.1964e+00 -1.1988e+00
  1.93000e-06  6.0000e-01  1.1964e+00 -1.1988e+00
  1.94000e-06  6.0000e-01  1.1965e+00 -1.1988e+00
  1.95000e-06  6.0000e-01  1.1965e+00 -1.1988e+00
  1.96000e-06  6.0000e-01  1.1965e+00 -1.1988e+00
  1.97000e-06  6.0000e-01  1.1965e+00 -1.1988e+00
  1.98000e-06  6.0000e-01  1.1966e+00 -1.1988e+00
  1.99000e-06  6.0000e-01  1.1966e+00 -1.1988e+00
  2.00000e-06  6.0000e-01  1.1966e+00 -1.1988e+00
  2.01000e-06  6.0000e-01  1.1966e+00 -1.1988e+00
  2.02000e-06  6.0000e-01  1.1966e+00 -1.1988e+00
  2.03000e-06  6.0000e-01  1.1967e+00 -1.1988e+00
  2.04000e-06  6.0000e-01  1.1967e+00 -1.1988e+00
  2.05000e-06  6.0000e-01  1.1967e+00 -1.1988e+00
  2.06000e-06  6.0000e-01  1.1967e+00 -1.1988e+00
  2.07000e-06  6.0000e-01  1.1967e+00 -1.1988e+00
  2.08000e-06  6.0000e-01  1.1968e+00 -1.1988e+00
  2.09000e-06  6.0000e-01  1.1968e+00 -1.1988e+00
  2.10000e-06  6.0000e-01  1.1968e+00 -1.1988e+00
  2.11000e-06  6.0000e-01  1.1968e+00 -1.1988e+00
  2.12000e-06  6.0000e-01  1.1968e+00 -1.1988e+00
  2.13000e-06  6.0000e-01  1.1969e+00 -1.1988e+00
  2.14000e-06  6.0000e-01  1.1969e+00 -1.1988e+00
  2.15000e-06  6.0000e-01  1.1969e+00 -1.1988e+00
  2.16000e-06  6.0000e-01  1.1969e+00 -1.1988e+00
  2.17000e-06  6.0000e-01  1.1969e+00 -1.1988e+00
  2.18000e-06  6.0000e-01  1.1970e+00 -1.1987e+00
  2.19000e-06  6.0000e-01  1.1970e+00 -1.1987e+00
  2.20000e-06  6.0000e-01  1.1970e+00 -1.1987e+00
  2.21000e-06  6.0000e-01  1.1970e+00 -1.1987e+00
  2.22000e-06  6.0000e-01  1.1971e+00 -1.1987e+00
  2.23000e-06  6.0000e-01  1.1971e+00 -1.1987e+00
  2.24000e-06  6.0000e-01  1.1971e+00 -1.1987e+00
  2.25000e-06  6.0000e-01  1.1971e+00 -1.1987e+00
  2.26000e-06  6.0000e-01  1.1971e+00 -1.1987e+00
  2.27000e-06  6.0000e-01  1.1972e+00 -1.1987e+00
  2.28000e-06  6.0000e-01  1.1972e+00 -1.1987e+00
  2.29000e-06  6.0000e-01  1.1972e+00 -1.1987e+00
  2.30000e-06  6.0000e-01  1.1972e+00 -1.1987e+00
  2.31000e-06  6.0000e-01  1.1972e+00 -1.1987e+00
  2.32000e-06  6.0000e-01  1.1973e+00 -1.1987e+00
  2.33000e-06  6.0000e-01  1.1973e+00 -1.1987e+00
  2.34000e-06  6.0000e-01  1.1973e+00 -1.1987e+00
  2.35000e-06  6.0000e-01  1.1973e+00 -1.1987e+00
  2.36000e-06  6.0000e-01  1.1973e+00 -1.1987e+00
  2.37000e-06  6.0000e-01  1.1974e+00 -1.1987e+00
  2.38000e-06  6.0000e-01  1.1974e+00 -1.1987e+00
  2.39000e-06  6.0000e-01  1.1974e+00 -1.1987e+00
  2.40000e-06  6.0000e-01  1.1974e+00 -1.1987e+00
  2.41000e-06  6.0000e-01  1.1975e+00 -1.1987e+00
  2.42000e-06  6.0000e-01  1.1975e+00 -1.1987e+00
  2.43000e-06  6.0000e-01  1.1975e+00 -1.1987e+00
  2.44000e-06  6.0000e-01  1.1975e+00 -1.1987e+00
  2.45000e-06  6.0000e-01  1.1975e+00 -1.1987e+00
  2.46000e-06  6.0000e-01  1.1976e+00 -1.1987e+00
  2.47000e-06  6.0000e-01  1.1976e+00 -1.1987e+00
  2.48000e-06  6.0000e-01  1.1976e+00 -1.1987e+00
  2.49000e-06  6.0000e-01  1.1976e+00 -1.1987e+00
  2.50000e-06  6.0000e-01  1.1976e+00 -1.1987e+00
  2.51000e-06  6.0000e-01  1.1977e+00 -1.1986e+00
  2.52000e-06  6.0000e-01  1.1977e+00 -1.1986e+00
  2.53000e-06  6.0000e-01  1.1977e+00 -1.1986e+00
  2.54000e-06  6.0000e-01  1.1977e+00 -1.1986e+00
  2.55000e-06  6.0000e-01  1.1977e+00 -1.1986e+00
  2.56000e-06  6.0000e-01  1.1978e+00 -1.1986e+00
  2.57000e-06  6.0000e-01  1.1978e+00 -1.1986e+00
  2.58000e-06  6.0000e-01  1.1978e+00 -1.1986e+00
  2.59000e-06  6.0000e-01  1.1978e+00 -1.1986e+00
  2.60000e-06  6.0000e-01  1.1978e+00 -1.1986e+00
  2.61000e-06  6.0000e-01  1.1979e+00 -1.1986e+00
  2.62000e-06  6.0000e-01  1.1979e+00 -1.1986e+00
  2.63000e-06  6.0000e-01  1.1979e+00 -1.1986e+00
  2.64000e-06  6.0000e-01  1.1979e+00 -1.1986e+00
  2.65000e-06  6.0000e-01  1.1980e+00 -1.1986e+00
  2.66000e-06  6.0000e-01  1.1980e+00 -1.1986e+00
  2.67000e-06  6.0000e-01  1.1980e+00 -1.1986e+00
  2.68000e-06  6.0000e-01  1.1980e+00 -1.1986e+00
  2.69000e-06  6.0000e-01  1.1980e+00 -1.1986e+00
  2.70000e-06  6.0000e-01  1.1980e+00 -1.1986e+00
  2.71000e-06  6.0000e-01  1.1979e+00 -1.1986e+00
  2.72000e-06  6.0000e-01  1.1979e+00 -1.1986e+00
  2.73000e-06  6.0000e-01  1.1979e+00 -1.1986e+00
  2.74000e-06  6.0000e-01  1.1979e+00 -1.1986e+00
  2.75000e-06  6.0000e-01  1.1979e+00 -1.1986e+00
  2.76000e-06  6.0000e-01  1.1979e+00 -1.1986e+00
  2.77000e-06  6.0000e-01  1.1979e+00 -1.1986e+00
  2.78000e-06  6.0000e-01  1.1978e+00 -1.1986e+00
  2.79000e-06  6.0000e-01  1.1978e+00 -1.1986e+00
  2.80000e-06  6.0000e-01  1.1978e+00 -1.1986e+00
  2.81000e-06  6.0000e-01  1.1978e+00 -1.1986e+00
  2.82000e-06  6.0000e-01  1.1978e+00 -1.1986e+00
  2.83000e-06  6.0000e-01  1.1978e+00 -1.1986e+00
  2.84000e-06  6.0000e-01  1.1978e+00 -1.1986e+00
  2.85000e-06  6.0000e-01  1.1977e+00 -1.1986e+00
  2.86000e-06  6.0000e-01  1.1977e+00 -1.1986e+00
  2.87000e-06  6.0000e-01  1.1977e+00 -1.1986e+00
  2.88000e-06  6.0000e-01  1.1977e+00 -1.1986e+00
  2.89000e-06  6.0000e-01  1.1977e+00 -1.1986e+00
  2.90000e-06  6.0000e-01  1.1977e+00 -1.1986e+00
  2.91000e-06  6.0000e-01  1.1976e+00 -1.1986e+00
  2.92000e-06  6.0000e-01  1.1976e+00 -1.1986e+00
  2.93000e-06  6.0000e-01  1.1976e+00 -1.1986e+00
  2.94000e-06  6.0000e-01  1.1976e+00 -1.1987e+00
  2.95000e-06  6.0000e-01  1.1976e+00 -1.1987e+00
  2.96000e-06  6.0000e-01  1.1976e+00 -1.1987e+00
  2.97000e-06  6.0000e-01  1.1976e+00 -1.1987e+00
  2.98000e-06  6.0000e-01  1.1975e+00 -1.1987e+00
  2.99000e-06  6.0000e-01  1.1975e+00 -1.1987e+00
  3.00000e-06  6.0000e-01  1.1975e+00 -1.1987e+00
  3.01000e-06  6.0000e-01  1.1975e+00 -1.1987e+00
  3.02000e-06  6.0000e-01  1.1975e+00 -1.1987e+00
  3.03000e-06  6.0000e-01  1.1975e+00 -1.1987e+00
  3.04000e-06  6.0000e-01  1.1975e+00 -1.1987e+00
  3.05000e-06  6.0000e-01  1.1974e+00 -1.1987e+00
  3.06000e-06  6.0000e-01  1.1974e+00 -1.1987e+00
  3.07000e-06  6.0000e-01  1.1974e+00 -1.1987e+00
  3.08000e-06  6.0000e-01  1.1974e+00 -1.1987e+00
  3.09000e-06  6.0000e-01  1.1974e+00 -1.1987e+00
  3.10000e-06  6.0000e-01  1.1974e+00 -1.1987e+00
  3.11000e-06  6.0000e-01  1.1974e+00 -1.1987e+00
  3.12000e-06  6.0000e-01  1.1973e+00 -1.1987e+00
  3.13000e-06  6.0000e-01  1.1973e+00 -1.1987e+00
  3.14000e-06  6.0000e-01  1.1973e+00 -1.1987e+00
  3.15000e-06  6.0000e-01  1.1973e+00 -1.1987e+00
  3.16000e-06  6.0000e-01  1.1973e+00 -1.1987e+00
  3.17000e-06  6.0000e-01  1.1973e+00 -1.1987e+00
  3.18000e-06  6.0000e-01  1.1972e+00 -1.1987e+00
  3.19000e-06  6.0000e-01  1.1972e+00 -1.1987e+00
  3.20000e-06  6.0000e-01  1.1972e+00 -1.1987e+00
  3.21000e-06  6.0000e-01  1.1972e+00 -1.1987e+00
  3.22000e-06  6.0000e-01  1.1972e+00 -1.1987e+00
  3.23000e-06  6.0000e-01  1.1972e+00 -1.1987e+00
  3.24000e-06  6.0000e-01  1.1972e+00 -1.1987e+00
  3.25000e-06  6.0000e-01  1.1971e+00 -1.1987e+00
  3.26000e-06  6.0000e-01  1.1971e+00 -1.1987e+00
  3.27000e-06  6.0000e-01  1.1971e+00 -1.1987e+00
  3.28000e-06  6.0000e-01  1.1971e+00 -1.1987e+00
  3.29000e-06  6.0000e-01  1.1971e+00 -1.1987e+00
  3.30000e-06  6.0000e-01  1.1971e+00 -1.1987e+00
  3.31000e-06  6.0000e-01  1.1971e+00 -1.1987e+00
  3.32000e-06  6.0000e-01  1.1970e+00 -1.1987e+00
  3.33000e-06  6.0000e-01  1.1970e+00 -1.1987e+00
  3.34000e-06  6.0000e-01  1.1970e+00 -1.1987e+00
  3.35000e-06  6.0000e-01  1.1970e+00 -1.1987e+00
  3.36000e-06  6.0000e-01  1.1970e+00 -1.1987e+00
  3.37000e-06  6.0000e-01  1.1970e+00 -1.1987e+00
  3.38000e-06  6.0000e-01  1.1969e+00 -1.1987e+00
  3.39000e-06  6.0000e-01  1.1969e+00 -1.1987e+00
  3.40000e-06  6.0000e-01  1.1969e+00 -1.1987e+00
  3.41000e-06  6.0000e-01  1.1969e+00 -1.1987e+00
  3.42000e-06  6.0000e-01  1.1969e+00 -1.1987e+00
  3.43000e-06  6.0000e-01  1.1969e+00 -1.1987e+00
  3.44000e-06  6.0000e-01  1.1969e+00 -1.1987e+00
  3.45000e-06  6.0000e-01  1.1968e+00 -1.1987e+00
  3.46000e-06  6.0000e-01  1.1968e+00 -1.1988e+00
  3.47000e-06  6.0000e-01  1.1968e+00 -1.1988e+00
  3.48000e-06  6.0000e-01  1.1968e+00 -1.1988e+00
  3.49000e-06  6.0000e-01  1.1968e+00 -1.1988e+00
  3.50000e-06  6.0000e-01  1.1968e+00 -1.1988e+00
  3.51000e-06  6.0000e-01  1.1968e+00 -1.1988e+00
  3.52000e-06  6.0000e-01  1.1967e+00 -1.1988e+00
  3.53000e-06  6.0000e-01  1.1967e+00 -1.1988e+00
  3.54000e-06  6.0000e-01  1.1967e+00 -1.1988e+00
  3.55000e-06  6.0000e-01  1.1967e+00 -1.1988e+00
  3.56000e-06  6.0000e-01  1.1967e+00 -1.1988e+00
  3.57000e-06  6.0000e-01  1.1967e+00 -1.1988e+00
  3.58000e-06  6.0000e-01  1.1967e+00 -1.1988e+00
  3.59000e-06  6.0000e-01  1.1966e+00 -1.1988e+00
  3.60000e-06  6.0000e-01  1.1966e+00 -1.1988e+00
  3.61000e-06  6.0000e-01  1.1966e+00 -1.1988e+00
  3.62000e-06  6.0000e-01  1.1966e+00 -1.1988e+00
  3.63000e-06  6.0000e-01  1.1966e+00 -1.1988e+00
  3.64000e-06  6.0000e-01  1.1966e+00 -1.1988e+00
  3.65000e-06  6.0000e-01  1.1965e+00 -1.1988e+00
  3.66000e-06  6.0000e-01  1.1965e+00 -1.1988e+00
  3.67000e-06  6.0000e-01  1.1965e+00 -1.1988e+00
  3.68000e-06  6.0000e-01  1.1965e+00 -1.1988e+00
  3.69000e-06  6.0000e-01  1.1965e+00 -1.1988e+00
  3.70000e-06  6.0000e-01  1.1965e+00 -1.1988e+00
  3.71000e-06  6.0000e-01  1.1965e+00 -1.1988e+00
  3.72000e-06  6.0000e-01  1.1964e+00 -1.1988e+00
  3.73000e-06  6.0000e-01  1.1964e+00 -1.1988e+00
  3.74000e-06  6.0000e-01  1.1964e+00 -1.1988e+00
  3.75000e-06  6.0000e-01  1.1964e+00 -1.1988e+00
  3.76000e-06  6.0000e-01  1.1964e+00 -1.1988e+00
  3.77000e-06  6.0000e-01  1.1964e+00 -1.1988e+00
  3.78000e-06  6.0000e-01  1.1964e+00 -1.1988e+00
  3.79000e-06  6.0000e-01  1.1963e+00 -1.1988e+00
  3.80000e-06  6.0000e-01  1.1963e+00 -1.1988e+00
  3.81000e-06  6.0000e-01  1.1963e+00 -1.1988e+00
  3.82000e-06  6.0000e-01  1.1963e+00 -1.1988e+00
  3.83000e-06  6.0000e-01  1.1963e+00 -1.1988e+00
  3.84000e-06  6.0000e-01  1.1963e+00 -1.1988e+00
  3.85000e-06  6.0000e-01  1.1962e+00 -1.1988e+00
  3.86000e-06  6.0000e-01  1.1962e+00 -1.1988e+00
  3.87000e-06  6.0000e-01  1.1962e+00 -1.1988e+00
  3.88000e-06  6.0000e-01  1.1962e+00 -1.1988e+00
  3.89000e-06  6.0000e-01  1.1962e+00 -1.1988e+00
  3.90000e-06  6.0000e-01  1.1962e+00 -1.1988e+00
  3.91000e-06  6.0000e-01  1.1962e+00 -1.1988e+00
  3.92000e-06  6.0000e-01  1.1962e+00 -1.1988e+00
  3.93000e-06  6.0000e-01  1.1962e+00 -1.1988e+00
  3.94000e-06  6.0000e-01  1.1962e+00 -1.1988e+00
  3.95000e-06  6.0000e-01  1.1962e+00 -1.1988e+00
  3.96000e-06  6.0000e-01  1.1962e+00 -1.1988e+00
  3.97000e-06  6.0000e-01  1.1962e+00 -1.1988e+00
  3.98000e-06  6.0000e-01  1.1962e+00 -1.1988e+00
  3.99000e-06  6.0000e-01  1.1963e+00 -1.1988e+00
  4.00000e-06  6.0000e-01  1.1963e+00 -1.1988e+00
  4.01000e-06  6.0000e-01  1.1963e+00 -1.1988e+00
  4.02000e-06  6.0000e-01  1.1963e+00 -1.1988e+00
  4.03000e-06  6.0000e-01  1.1963e+00 -1.1988e+00
  4.04000e-06  6.0000e-01  1.1963e+00 -1.1988e+00
  4.05000e-06  6.0000e-01  1.1963e+00 -1.1988e+00
  4.06000e-06  6.0000e-01  1.1963e+00 -1.1988e+00
  4.07000e-06  6.0000e-01  1.1963e+00 -1.1988e+00
  4.08000e-06  6.0000e-01  1.1963e+00 -1.1988e+00
  4.09000e-06  6.0000e-01  1.1964e+00 -1.1988e+00
  4.10000e-06  6.0000e-01  1.1964e+00 -1.1988e+00
  4.11000e-06  6.0000e-01  1.1964e+00 -1.1988e+00
  4.12000e-06  6.0000e-01  1.1964e+00 -1.1988e+00
  4.13000e-06  6.0000e-01  1.1964e+00 -1.1988e+00
  4.14000e-06  6.0000e-01  1.1964e+00 -1.1988e+00
  4.15000e-06  6.0000e-01  1.1964e+00 -1.1988e+00
  4.16000e-06  6.0000e-01  1.1964e+00 -1.1988e+00
  4.17000e-06  6.0000e-01  1.1964e+00 -1.1988e+00
  4.18000e-06  6.0000e-01  1.1965e+00 -1.1988e+00
  4.19000e-06  6.0000e-01  1.1965e+00 -1.1988e+00
  4.20000e-06  6.0000e-01  1.1965e+00 -1.1988e+00
  4.21000e-06  6.0000e-01  1.1965e+00 -1.1988e+00
  4.22000e-06  6.0000e-01  1.1965e+00 -1.1988e+00
  4.23000e-06  6.0000e-01  1.1965e+00 -1.1988e+00
  4.24000e-06  6.0000e-01  1.1965e+00 -1.1988e+00
  4.25000e-06  6.0000e-01  1.1965e+00 -1.1988e+00
  4.26000e-06  6.0000e-01  1.1965e+00 -1.1988e+00
  4.27000e-06  6.0000e-01  1.1966e+00 -1.1988e+00
  4.28000e-06  6.0000e-01  1.1966e+00 -1.1988e+00
  4.29000e-06  6.0000e-01  1.1966e+00 -1.1988e+00
  4.30000e-06  6.0000e-01  1.1966e+00 -1.1988e+00
  4.31000e-06  6.0000e-01  1.1966e+00 -1.1988e+00
  4.32000e-06  6.0000e-01  1.1966e+00 -1.1988e+00
  4.33000e-06  6.0000e-01  1.1966e+00 -1.1988e+00
  4.34000e-06  6.0000e-01  1.1966e+00 -1.1988e+00
  4.35000e-06  6.0000e-01  1.1966e+00 -1.1988e+00
  4.36000e-06  6.0000e-01  1.1967e+00 -1.1988e+00
  4.37000e-06  6.0000e-01  1.1967e+00 -1.1988e+00
  4.38000e-06  6.0000e-01  1.1967e+00 -1.1988e+00
  4.39000e-06  6.0000e-01  1.1967e+00 -1.1988e+00
  4.40000e-06  6.0000e-01  1.1967e+00 -1.1988e+00
  4.41000e-06  6.0000e-01  1.1967e+00 -1.1988e+00
  4.42000e-06  6.0000e-01  1.1967e+00 -1.1988e+00
  4.43000e-06  6.0000e-01  1.1967e+00 -1.1988e+00
  4.44000e-06  6.0000e-01  1.1967e+00 -1.1988e+00
  4.45000e-06  6.0000e-01  1.1967e+00 -1.1988e+00
  4.46000e-06  6.0000e-01  1.1968e+00 -1.1988e+00
  4.47000e-06  6.0000e-01  1.1968e+00 -1.1988e+00
  4.48000e-06  6.0000e-01  1.1968e+00 -1.1988e+00
  4.49000e-06  6.0000e-01  1.1968e+00 -1.1988e+00
  4.50000e-06  6.0000e-01  1.1968e+00 -1.1988e+00
  4.51000e-06  6.0000e-01  1.1968e+00 -1.1988e+00
  4.52000e-06  6.0000e-01  1.1968e+00 -1.1988e+00
  4.53000e-06  6.0000e-01  1.1968e+00 -1.1988e+00
  4.54000e-06  6.0000e-01  1.1968e+00 -1.1988e+00
  4.55000e-06  6.0000e-01  1.1969e+00 -1.1988e+00
  4.56000e-06  6.0000e-01  1.1969e+00 -1.1988e+00
  4.57000e-06  6.0000e-01  1.1969e+00 -1.1988e+00
  4.58000e-06  6.0000e-01  1.1969e+00 -1.1988e+00
  4.59000e-06  6.0000e-01  1.1969e+00 -1.1987e+00
  4.60000e-06  6.0000e-01  1.1969e+00 -1.1987e+00
  4.61000e-06  6.0000e-01  1.1969e+00 -1.1987e+00
  4.62000e-06  6.0000e-01  1.1969e+00 -1.1987e+00
  4.63000e-06  6.0000e-01  1.1969e+00 -1.1987e+00
  4.64000e-06  6.0000e-01  1.1970e+00 -1.1987e+00
  4.65000e-06  6.0000e-01  1.1970e+00 -1.1987e+00
  4.66000e-06  6.0000e-01  1.1970e+00 -1.1987e+00
  4.67000e-06  6.0000e-01  1.1970e+00 -1.1987e+00
  4.68000e-06  6.0000e-01  1.1970e+00 -1.1987e+00
  4.69000e-06  6.0000e-01  1.1970e+00 -1.1987e+00
  4.70000e-06  6.0000e-01  1.1970e+00 -1.1987e+00
  4.71000e-06  6.0000e-01  1.1970e+00 -1.1987e+00
  4.72000e-06  6.0000e-01  1.1970e+00 -1.1987e+00
  4.73000e-06  6.0000e-01  1.1970e+00 -1.1987e+00
  4.74000e-06  6.0000e-01  1.1971e+00 -1.1987e+00
  4.75000e-06  6.0000e-01  1.1971e+00 -1.1987e+00
  4.76000e-06  6.0000e-01  1.1971e+00 -1.1987e+00
  4.77000e-06  6.0000e-01  1.1971e+00 -1.1987e+00
  4.78000e-06  6.0000e-01  1.1971e+00 -1.1987e+00
  4.79000e-06  6.0000e-01  1.1971e+00 -1.1987e+00
  4.80000e-06  6.0000e-01  1.1971e+00 -1.1987e+00
  4.81000e-06  6.0000e-01  1.1971e+00 -1.1987e+00
  4.82000e-06  6.0000e-01  1.1971e+00 -1.1987e+00
  4.83000e-06  6.0000e-01  1.1972e+00 -1.1987e+00
  4.84000e-06  6.0000e-01  1.1972e+00 -1.1987e+00
  4.85000e-06  6.0000e-01  1.1972e+00 -1.1987e+00
  4.86000e-06  6.0000e-01  1.1972e+00 -1.1987e+00
  4.87000e-06  6.0000e-01  1.1972e+00 -1.1987e+00
  4.88000e-06  6.0000e-01  1.1972e+00 -1.1987e+00
  4.89000e-06  6.0000e-01  1.1972e+00 -1.1987e+00
  4.90000e-06  6.0000e-01  1.1972e+00 -1.1987e+00
  4.91000e-06  6.0000e-01  1.1972e+00 -1.1987e+00
  4.92000e-06  6.0000e-01  1.1973e+00 -1.1987e+00
  4.93000e-06  6.0000e-01  1.1973e+00 -1.1987e+00
  4.94000e-06  6.0000e-01  1.1973e+00 -1.1987e+00
  4.95000e-06  6.0000e-01  1.1973e+00 -1.1987e+00
  4.96000e-06  6.0000e-01  1.1973e+00 -1.1987e+00
  4.97000e-06  6.0000e-01  1.1973e+00 -1.1987e+00
  4.98000e-06  6.0000e-01  1.1973e+00 -1.1987e+00
  4.99000e-06  6.0000e-01  1.1973e+00 -1.1987e+00
  5.00000e-06  6.0000e-01  1.1973e+00 -1.1987e+00
  5.01000e-06  6.0000e-01  1.1974e+00 -1.1987e+00
  5.02000e-06  6.0000e-01  1.1974e+00 -1.1987e+00
  5.03000e-06  6.0000e-01  1.1974e+00 -1.1987e+00
  5.04000e-06  6.0000e-01  1.1974e+00 -1.1987e+00
  5.05000e-06  6.0000e-01  1.1974e+00 -1.1987e+00
  5.06000e-06  6.0000e-01  1.1974e+00 -1.1987e+00
  5.07000e-06  6.0000e-01  1.1974e+00 -1.1987e+00
  5.08000e-06  6.0000e-01  1.1974e+00 -1.1987e+00
  5.09000e-06  6.0000e-01  1.1974e+00 -1.1987e+00
  5.10000e-06  6.0000e-01  1.1974e+00 -1.1987e+00
  5.11000e-06  6.0000e-01  1.1975e+00 -1.1987e+00
  5.12000e-06  6.0000e-01  1.1975e+00 -1.1987e+00
  5.13000e-06  6.0000e-01  1.1975e+00 -1.1987e+00
  5.14000e-06  6.0000e-01  1.1975e+00 -1.1987e+00
  5.15000e-06  6.0000e-01  1.1975e+00 -1.1987e+00
  5.16000e-06  6.0000e-01  1.1975e+00 -1.1987e+00
  5.17000e-06  6.0000e-01  1.1975e+00 -1.1987e+00
  5.18000e-06  6.0000e-01  1.1975e+00 -1.1987e+00
  5.19000e-06  6.0000e-01  1.1975e+00 -1.1987e+00
  5.20000e-06  6.0000e-01  1.1976e+00 -1.1987e+00
  5.21000e-06  6.0000e-01  1.1976e+00 -1.1987e+00
  5.22000e-06  6.0000e-01  1.1976e+00 -1.1987e+00
  5.23000e-06  6.0000e-01  1.1976e+00 -1.1987e+00
  5.24000e-06  6.0000e-01  1.1976e+00 -1.1987e+00
  5.25000e-06  6.0000e-01  1.1976e+00 -1.1987e+00
  5.26000e-06  6.0000e-01  1.1976e+00 -1.1987e+00
  5.27000e-06  6.0000e-01  1.1976e+00 -1.1987e+00
  5.28000e-06  6.0000e-01  1.1976e+00 -1.1987e+00
  5.29000e-06  6.0000e-01  1.1977e+00 -1.1987e+00
  5.30000e-06  6.0000e-01  1.1977e+00 -1.1987e+00
  5.31000e-06  6.0000e-01  1.1977e+00 -1.1987e+00
  5.32000e-06  6.0000e-01  1.1977e+00 -1.1987e+00
  5.33000e-06  6.0000e-01  1.1977e+00 -1.1987e+00
  5.34000e-06  6.0000e-01  1.1977e+00 -1.1987e+00
  5.35000e-06  6.0000e-01  1.1977e+00 -1.1987e+00
  5.36000e-06  6.0000e-01  1.1977e+00 -1.1986e+00
  5.37000e-06  6.0000e-01  1.1977e+00 -1.1986e+00
  5.38000e-06  6.0000e-01  1.1977e+00 -1.1986e+00
  5.39000e-06  6.0000e-01  1.1978e+00 -1.1986e+00
  5.40000e-06  6.0000e-01  1.1978e+00 -1.1986e+00
  5.41000e-06  6.0000e-01  1.1978e+00 -1.1986e+00
  5.42000e-06  6.0000e-01  1.1978e+00 -1.1986e+00
  5.43000e-06  6.0000e-01  1.1978e+00 -1.1986e+00
  5.44000e-06  6.0000e-01  1.1978e+00 -1.1986e+00
  5.45000e-06  6.0000e-01  1.1978e+00 -1.1986e+00
  5.46000e-06  6.0000e-01  1.1978e+00 -1.1986e+00
  5.47000e-06  6.0000e-01  1.1978e+00 -1.1986e+00
  5.48000e-06  6.0000e-01  1.1979e+00 -1.1986e+00
  5.49000e-06  6.0000e-01  1.1979e+00 -1.1986e+00
  5.50000e-06  6.0000e-01  1.1979e+00 -1.1986e+00
  5.51000e-06  6.0000e-01  1.1979e+00 -1.1986e+00
  5.52000e-06  6.0000e-01  1.1979e+00 -1.1986e+00
  5.53000e-06  6.0000e-01  1.1979e+00 -1.1986e+00
  5.54000e-06  6.0000e-01  1.1979e+00 -1.1986e+00
  5.55000e-06  6.0000e-01  1.1979e+00 -1.1986e+00
  5.56000e-06  6.0000e-01  1.1979e+00 -1.1986e+00
  5.57000e-06  6.0000e-01  1.1980e+00 -1.1986e+00
  5.58000e-06  6.0000e-01  1.1980e+00 -1.1986e+00
  5.59000e-06  6.0000e-01  1.1980e+00 -1.1986e+00
  5.60000e-06  6.0000e-01  1.1980e+00 -1.1986e+00
  5.61000e-06  6.0000e-01  1.1980e+00 -1.1986e+00
  5.62000e-06  6.0000e-01  1.1980e+00 -1.1986e+00
  5.63000e-06  6.0000e-01  1.1980e+00 -1.1986e+00
  5.64000e-06  6.0000e-01  1.1980e+00 -1.1986e+00
  5.65000e-06  6.0000e-01  1.1980e+00 -1.1986e+00
  5.66000e-06  6.0000e-01  1.1980e+00 -1.1986e+00
  5.67000e-06  6.0000e-01  1.1979e+00 -1.1986e+00
  5.68000e-06  6.0000e-01  1.1979e+00 -1.1986e+00
  5.69000e-06  6.0000e-01  1.1979e+00 -1.1986e+00
  5.70000e-06  6.0000e-01  1.1979e+00 -1.1986e+00
  5.71000e-06  6.0000e-01  1.1979e+00 -1.1986e+00
  5.72000e-06  6.0000e-01  1.1979e+00 -1.1986e+00
  5.73000e-06  6.0000e-01  1.1979e+00 -1.1986e+00
  5.74000e-06  6.0000e-01  1.1979e+00 -1.1986e+00
  5.75000e-06  6.0000e-01  1.1979e+00 -1.1986e+00
  5.76000e-06  6.0000e-01  1.1979e+00 -1.1986e+00
  5.77000e-06  6.0000e-01  1.1979e+00 -1.1986e+00
  5.78000e-06  6.0000e-01  1.1979e+00 -1.1986e+00
  5.79000e-06  6.0000e-01  1.1978e+00 -1.1986e+00
  5.80000e-06  6.0000e-01  1.1978e+00 -1.1986e+00
  5.81000e-06  6.0000e-01  1.1978e+00 -1.1986e+00
  5.82000e-06  6.0000e-01  1.1978e+00 -1.1986e+00
  5.83000e-06  6.0000e-01  1.1978e+00 -1.1986e+00
  5.84000e-06  6.0000e-01  1.1978e+00 -1.1986e+00
  5.85000e-06  6.0000e-01  1.1978e+00 -1.1986e+00
  5.86000e-06  6.0000e-01  1.1978e+00 -1.1986e+00
  5.87000e-06  6.0000e-01  1.1978e+00 -1.1986e+00
  5.88000e-06  6.0000e-01  1.1978e+00 -1.1986e+00
  5.89000e-06  6.0000e-01  1.1978e+00 -1.1986e+00
  5.90000e-06  6.0000e-01  1.1978e+00 -1.1986e+00
  5.91000e-06  6.0000e-01  1.1977e+00 -1.1986e+00
  5.92000e-06  6.0000e-01  1.1977e+00 -1.1986e+00
  5.93000e-06  6.0000e-01  1.1977e+00 -1.1986e+00
  5.94000e-06  6.0000e-01  1.1977e+00 -1.1986e+00
  5.95000e-06  6.0000e-01  1.1977e+00 -1.1986e+00
  5.96000e-06  6.0000e-01  1.1977e+00 -1.1986e+00
  5.97000e-06  6.0000e-01  1.1977e+00 -1.1987e+00
  5.98000e-06  6.0000e-01  1.1977e+00 -1.1987e+00
  5.99000e-06  6.0000e-01  1.1977e+00 -1.1987e+00
  6.00000e-06  6.0000e-01  1.1977e+00 -1.1987e+00
  6.01000e-06  6.0000e-01  1.1977e+00 -1.1987e+00
  6.02000e-06  6.0000e-01  1.1977e+00 -1.1987e+00
  6.03000e-06  6.0000e-01  1.1976e+00 -1.1987e+00
  6.04000e-06  6.0000e-01  1.1976e+00 -1.1987e+00
  6.05000e-06  6.0000e-01  1.1976e+00 -1.1987e+00
  6.06000e-06  6.0000e-01  1.1976e+00 -1.1987e+00
  6.07000e-06  6.0000e-01  1.1976e+00 -1.1987e+00
  6.08000e-06  6.0000e-01  1.1976e+00 -1.1987e+00
  6.09000e-06  6.0000e-01  1.1976e+00 -1.1987e+00
  6.10000e-06  6.0000e-01  1.1976e+00 -1.1987e+00
  6.11000e-06  6.0000e-01  1.1976e+00 -1.1987e+00
  6.12000e-06  6.0000e-01  1.1976e+00 -1.1987e+00
  6.13000e-06  6.0000e-01  1.1976e+00 -1.1987e+00
  6.14000e-06  6.0000e-01  1.1976e+00 -1.1987e+00
  6.15000e-06  6.0000e-01  1.1976e+00 -1.1987e+00
  6.16000e-06  6.0000e-01  1.1975e+00 -1.1987e+00
  6.17000e-06  6.0000e-01  1.1975e+00 -1.1987e+00
  6.18000e-06  6.0000e-01  1.1975e+00 -1.1987e+00
  6.19000e-06  6.0000e-01  1.1975e+00 -1.1987e+00
  6.20000e-06  6.0000e-01  1.1975e+00 -1.1987e+00
  6.21000e-06  6.0000e-01  1.1975e+00 -1.1987e+00
  6.22000e-06  6.0000e-01  1.1975e+00 -1.1987e+00
  6.23000e-06  6.0000e-01  1.1975e+00 -1.1987e+00
  6.24000e-06  6.0000e-01  1.1975e+00 -1.1987e+00
  6.25000e-06  6.0000e-01  1.1975e+00 -1.1987e+00
  6.26000e-06  6.0000e-01  1.1975e+00 -1.1987e+00
  6.27000e-06  6.0000e-01  1.1975e+00 -1.1987e+00
  6.28000e-06  6.0000e-01  1.1974e+00 -1.1987e+00
  6.29000e-06  6.0000e-01  1.1974e+00 -1.1987e+00
  6.30000e-06  6.0000e-01  1.1974e+00 -1.1987e+00
  6.31000e-06  6.0000e-01  1.1974e+00 -1.1987e+00
  6.32000e-06  6.0000e-01  1.1974e+00 -1.1987e+00
  6.33000e-06  6.0000e-01  1.1974e+00 -1.1987e+00
  6.34000e-06  6.0000e-01  1.1974e+00 -1.1987e+00
  6.35000e-06  6.0000e-01  1.1974e+00 -1.1987e+00
  6.36000e-06  6.0000e-01  1.1974e+00 -1.1987e+00
  6.37000e-06  6.0000e-01  1.1974e+00 -1.1987e+00
  6.38000e-06  6.0000e-01  1.1974e+00 -1.1987e+00
  6.39000e-06  6.0000e-01  1.1974e+00 -1.1987e+00
  6.40000e-06  6.0000e-01  1.1973e+00 -1.1987e+00
  6.41000e-06  6.0000e-01  1.1973e+00 -1.1987e+00
  6.42000e-06  6.0000e-01  1.1973e+00 -1.1987e+00
  6.43000e-06  6.0000e-01  1.1973e+00 -1.1987e+00
  6.44000e-06  6.0000e-01  1.1973e+00 -1.1987e+00
  6.45000e-06  6.0000e-01  1.1973e+00 -1.1987e+00
  6.46000e-06  6.0000e-01  1.1973e+00 -1.1987e+00
  6.47000e-06  6.0000e-01  1.1973e+00 -1.1987e+00
  6.48000e-06  6.0000e-01  1.1973e+00 -1.1987e+00
  6.49000e-06  6.0000e-01  1.1973e+00 -1.1987e+00
  6.50000e-06  6.0000e-01  1.1973e+00 -1.1987e+00
  6.51000e-06  6.0000e-01  1.1973e+00 -1.1987e+00
  6.52000e-06  6.0000e-01  1.1972e+00 -1.1987e+00
  6.53000e-06  6.0000e-01  1.1972e+00 -1.1987e+00
  6.54000e-06  6.0000e-01  1.1972e+00 -1.1987e+00
  6.55000e-06  6.0000e-01  1.1972e+00 -1.1987e+00
  6.56000e-06  6.0000e-01  1.1972e+00 -1.1987e+00
  6.57000e-06  6.0000e-01  1.1972e+00 -1.1987e+00
  6.58000e-06  6.0000e-01  1.1972e+00 -1.1987e+00
  6.59000e-06  6.0000e-01  1.1972e+00 -1.1987e+00
  6.60000e-06  6.0000e-01  1.1972e+00 -1.1987e+00
  6.61000e-06  6.0000e-01  1.1972e+00 -1.1987e+00
  6.62000e-06  6.0000e-01  1.1972e+00 -1.1987e+00
  6.63000e-06  6.0000e-01  1.1972e+00 -1.1987e+00
  6.64000e-06  6.0000e-01  1.1971e+00 -1.1987e+00
  6.65000e-06  6.0000e-01  1.1971e+00 -1.1987e+00
  6.66000e-06  6.0000e-01  1.1971e+00 -1.1987e+00
  6.67000e-06  6.0000e-01  1.1971e+00 -1.1987e+00
  6.68000e-06  6.0000e-01  1.1971e+00 -1.1987e+00
  6.69000e-06  6.0000e-01  1.1971e+00 -1.1987e+00
  6.70000e-06  6.0000e-01  1.1971e+00 -1.1987e+00
  6.71000e-06  6.0000e-01  1.1971e+00 -1.1987e+00
  6.72000e-06  6.0000e-01  1.1971e+00 -1.1987e+00
  6.73000e-06  6.0000e-01  1.1971e+00 -1.1987e+00
  6.74000e-06  6.0000e-01  1.1971e+00 -1.1987e+00
  6.75000e-06  6.0000e-01  1.1971e+00 -1.1987e+00
  6.76000e-06  6.0000e-01  1.1971e+00 -1.1987e+00
  6.77000e-06  6.0000e-01  1.1970e+00 -1.1987e+00
  6.78000e-06  6.0000e-01  1.1970e+00 -1.1987e+00
  6.79000e-06  6.0000e-01  1.1970e+00 -1.1987e+00
  6.80000e-06  6.0000e-01  1.1970e+00 -1.1987e+00
  6.81000e-06  6.0000e-01  1.1970e+00 -1.1987e+00
  6.82000e-06  6.0000e-01  1.1970e+00 -1.1987e+00
  6.83000e-06  6.0000e-01  1.1970e+00 -1.1987e+00
  6.84000e-06  6.0000e-01  1.1970e+00 -1.1987e+00
  6.85000e-06  6.0000e-01  1.1970e+00 -1.1987e+00
  6.86000e-06  6.0000e-01  1.1970e+00 -1.1987e+00
  6.87000e-06  6.0000e-01  1.1970e+00 -1.1987e+00
  6.88000e-06  6.0000e-01  1.1970e+00 -1.1987e+00
  6.89000e-06  6.0000e-01  1.1969e+00 -1.1987e+00
  6.90000e-06  6.0000e-01  1.1969e+00 -1.1987e+00
  6.91000e-06  6.0000e-01  1.1969e+00 -1.1987e+00
  6.92000e-06  6.0000e-01  1.1969e+00 -1.1987e+00
  6.93000e-06  6.0000e-01  1.1969e+00 -1.1987e+00
  6.94000e-06  6.0000e-01  1.1969e+00 -1.1987e+00
  6.95000e-06  6.0000e-01  1.1969e+00 -1.1987e+00
  6.96000e-06  6.0000e-01  1.1969e+00 -1.1987e+00
  6.97000e-06  6.0000e-01  1.1969e+00 -1.1987e+00
  6.98000e-06  6.0000e-01  1.1969e+00 -1.1987e+00
  6.99000e-06  6.0000e-01  1.1969e+00 -1.1987e+00
  7.00000e-06  6.0000e-01  1.1969e+00 -1.1987e+00
  7.01000e-06  6.0000e-01  1.1968e+00 -1.1987e+00
  7.02000e-06  6.0000e-01  1.1968e+00 -1.1987e+00
  7.03000e-06  6.0000e-01  1.1968e+00 -1.1987e+00
  7.04000e-06  6.0000e-01  1.1968e+00 -1.1988e+00
  7.05000e-06  6.0000e-01  1.1968e+00 -1.1988e+00
  7.06000e-06  6.0000e-01  1.1968e+00 -1.1988e+00
  7.07000e-06  6.0000e-01  1.1968e+00 -1.1988e+00
  7.08000e-06  6.0000e-01  1.1968e+00 -1.1988e+00
  7.09000e-06  6.0000e-01  1.1968e+00 -1.1988e+00
  7.10000e-06  6.0000e-01  1.1968e+00 -1.1988e+00
  7.11000e-06  6.0000e-01  1.1968e+00 -1.1988e+00
  7.12000e-06  6.0000e-01  1.1968e+00 -1.1988e+00
  7.13000e-06  6.0000e-01  1.1967e+00 -1.1988e+00
  7.14000e-06  6.0000e-01  1.1967e+00 -1.1988e+00
  7.15000e-06  6.0000e-01  1.1967e+00 -1.1988e+00
  7.16000e-06  6.0000e-01  1.1967e+00 -1.1988e+00
  7.17000e-06  6.0000e-01  1.1967e+00 -1.1988e+00
  7.18000e-06  6.0000e-01  1.1967e+00 -1.1988e+00
  7.19000e-06  6.0000e-01  1.1967e+00 -1.1988e+00
  7.20000e-06  6.0000e-01  1.1967e+00 -1.1988e+00
  7.21000e-06  6.0000e-01  1.1967e+00 -1.1988e+00
  7.22000e-06  6.0000e-01  1.1967e+00 -1.1988e+00
  7.23000e-06  6.0000e-01  1.1967e+00 -1.1988e+00
  7.24000e-06  6.0000e-01  1.1967e+00 -1.1988e+00
  7.25000e-06  6.0000e-01  1.1966e+00 -1.1988e+00
  7.26000e-06  6.0000e-01  1.1966e+00 -1.1988e+00
  7.27000e-06  6.0000e-01  1.1966e+00 -1.1988e+00
  7.28000e-06  6.0000e-01  1.1966e+00 -1.1988e+00
  7.29000e-06  6.0000e-01  1.1966e+00 -1.1988e+00
  7.30000e-06  6.0000e-01  1.1966e+00 -1.1988e+00
  7.31000e-06  6.0000e-01  1.1966e+00 -1.1988e+00
  7.32000e-06  6.0000e-01  1.1966e+00 -1.1988e+00
  7.33000e-06  6.0000e-01  1.1966e+00 -1.1988e+00
  7.34000e-06  6.0000e-01  1.1966e+00 -1.1988e+00
  7.35000e-06  6.0000e-01  1.1966e+00 -1.1988e+00
  7.36000e-06  6.0000e-01  1.1966e+00 -1.1988e+00
  7.37000e-06  6.0000e-01  1.1966e+00 -1.1988e+00
  7.38000e-06  6.0000e-01  1.1965e+00 -1.1988e+00
  7.39000e-06  6.0000e-01  1.1965e+00 -1.1988e+00
  7.40000e-06  6.0000e-01  1.1965e+00 -1.1988e+00
  7.41000e-06  6.0000e-01  1.1965e+00 -1.1988e+00
  7.42000e-06  6.0000e-01  1.1965e+00 -1.1988e+00
  7.43000e-06  6.0000e-01  1.1965e+00 -1.1988e+00
  7.44000e-06  6.0000e-01  1.1965e+00 -1.1988e+00
  7.45000e-06  6.0000e-01  1.1965e+00 -1.1988e+00
  7.46000e-06  6.0000e-01  1.1965e+00 -1.1988e+00
  7.47000e-06  6.0000e-01  1.1965e+00 -1.1988e+00
  7.48000e-06  6.0000e-01  1.1965e+00 -1.1988e+00
  7.49000e-06  6.0000e-01  1.1965e+00 -1.1988e+00
  7.50000e-06  6.0000e-01  1.1964e+00 -1.1988e+00
  7.51000e-06  6.0000e-01  1.1964e+00 -1.1988e+00
  7.52000e-06  6.0000e-01  1.1964e+00 -1.1988e+00
  7.53000e-06  6.0000e-01  1.1964e+00 -1.1988e+00
  7.54000e-06  6.0000e-01  1.1964e+00 -1.1988e+00
  7.55000e-06  6.0000e-01  1.1964e+00 -1.1988e+00
  7.56000e-06  6.0000e-01  1.1964e+00 -1.1988e+00
  7.57000e-06  6.0000e-01  1.1964e+00 -1.1988e+00
  7.58000e-06  6.0000e-01  1.1964e+00 -1.1988e+00
  7.59000e-06  6.0000e-01  1.1964e+00 -1.1988e+00
  7.60000e-06  6.0000e-01  1.1964e+00 -1.1988e+00
  7.61000e-06  6.0000e-01  1.1964e+00 -1.1988e+00
  7.62000e-06  6.0000e-01  1.1963e+00 -1.1988e+00
  7.63000e-06  6.0000e-01  1.1963e+00 -1.1988e+00
  7.64000e-06  6.0000e-01  1.1963e+00 -1.1988e+00
  7.65000e-06  6.0000e-01  1.1963e+00 -1.1988e+00
  7.66000e-06  6.0000e-01  1.1963e+00 -1.1988e+00
  7.67000e-06  6.0000e-01  1.1963e+00 -1.1988e+00
  7.68000e-06  6.0000e-01  1.1963e+00 -1.1988e+00
  7.69000e-06  6.0000e-01  1.1963e+00 -1.1988e+00
  7.70000e-06  6.0000e-01  1.1963e+00 -1.1988e+00
  7.71000e-06  6.0000e-01  1.1963e+00 -1.1988e+00
  7.72000e-06  6.0000e-01  1.1963e+00 -1.1988e+00
  7.73000e-06  6.0000e-01  1.1963e+00 -1.1988e+00
  7.74000e-06  6.0000e-01  1.1962e+00 -1.1988e+00
  7.75000e-06  6.0000e-01  1.1962e+00 -1.1988e+00
  7.76000e-06  6.0000e-01  1.1962e+00 -1.1988e+00
  7.77000e-06  6.0000e-01  1.1962e+00 -1.1988e+00
  7.78000e-06  6.0000e-01  1.1962e+00 -1.1988e+00
  7.79000e-06  6.0000e-01  1.1962e+00 -1.1988e+00
  7.80000e-06  6.0000e-01  1.1962e+00 -1.1988e+00
  7.81000e-06  6.0000e-01  1.1962e+00 -1.1988e+00
  7.82000e-06  6.0000e-01  1.1962e+00 -1.1988e+00
  7.83000e-06  6.0000e-01  1.1962e+00 -1.1988e+00
  7.84000e-06  6.0000e-01  1.1962e+00 -1.1988e+00
  7.85000e-06  6.0000e-01  1.1962e+00 -1.1988e+00
  7.86000e-06  6.0000e-01  1.1962e+00 -1.1988e+00
  7.87000e-06  6.0000e-01  1.1962e+00 -1.1988e+00
  7.88000e-06  6.0000e-01  1.1962e+00 -1.1988e+00
  7.89000e-06  6.0000e-01  1.1962e+00 -1.1988e+00
  7.90000e-06  6.0000e-01  1.1962e+00 -1.1988e+00
  7.91000e-06  6.0000e-01  1.1962e+00 -1.1988e+00
  7.92000e-06  6.0000e-01  1.1962e+00 -1.1988e+00
  7.93000e-06  6.0000e-01  1.1962e+00 -1.1988e+00
  7.94000e-06  6.0000e-01  1.1962e+00 -1.1988e+00
  7.95000e-06  6.0000e-01  1.1962e+00 -1.1988e+00
  7.96000e-06  6.0000e-01  1.1962e+00 -1.1988e+00
  7.97000e-06  6.0000e-01  1.1962e+00 -1.1988e+00
  7.98000e-06  6.0000e-01  1.1962e+00 -1.1988e+00
  7.99000e-06  6.0000e-01  1.1963e+00 -1.1988e+00
  8.00000e-06  6.0000e-01  1.1963e+00 -1.1988e+00
  8.01000e-06  6.0000e-01  1.1963e+00 -1.1988e+00
  8.02000e-06  6.0000e-01  1.1963e+00 -1.1988e+00
  8.03000e-06  6.0000e-01  1.1963e+00 -1.1988e+00
  8.04000e-06  6.0000e-01  1.1963e+00 -1.1988e+00
  8.05000e-06  6.0000e-01  1.1963e+00 -1.1988e+00
  8.06000e-06  6.0000e-01  1.1963e+00 -1.1988e+00
  8.07000e-06  6.0000e-01  1.1963e+00 -1.1988e+00
  8.08000e-06  6.0000e-01  1.1963e+00 -1.1988e+00
  8.09000e-06  6.0000e-01  1.1963e+00 -1.1988e+00
  8.10000e-06  6.0000e-01  1.1963e+00 -1.1988e+00
  8.11000e-06  6.0000e-01  1.1963e+00 -1.1988e+00
  8.12000e-06  6.0000e-01  1.1963e+00 -1.1988e+00
  8.13000e-06  6.0000e-01  1.1963e+00 -1.1988e+00
  8.14000e-06  6.0000e-01  1.1964e+00 -1.1988e+00
  8.15000e-06  6.0000e-01  1.1964e+00 -1.1988e+00
  8.16000e-06  6.0000e-01  1.1964e+00 -1.1988e+00
  8.17000e-06  6.0000e-01  1.1964e+00 -1.1988e+00
  8.18000e-06  6.0000e-01  1.1964e+00 -1.1988e+00
  8.19000e-06  6.0000e-01  1.1964e+00 -1.1988e+00
  8.20000e-06  6.0000e-01  1.1964e+00 -1.1988e+00
  8.21000e-06  6.0000e-01  1.1964e+00 -1.1988e+00
  8.22000e-06  6.0000e-01  1.1964e+00 -1.1988e+00
  8.23000e-06  6.0000e-01  1.1964e+00 -1.1988e+00
  8.24000e-06  6.0000e-01  1.1964e+00 -1.1988e+00
  8.25000e-06  6.0000e-01  1.1964e+00 -1.1988e+00
  8.26000e-06  6.0000e-01  1.1964e+00 -1.1988e+00
  8.27000e-06  6.0000e-01  1.1964e+00 -1.1988e+00
  8.28000e-06  6.0000e-01  1.1964e+00 -1.1988e+00
  8.29000e-06  6.0000e-01  1.1964e+00 -1.1988e+00
  8.30000e-06  6.0000e-01  1.1965e+00 -1.1988e+00
  8.31000e-06  6.0000e-01  1.1965e+00 -1.1988e+00
  8.32000e-06  6.0000e-01  1.1965e+00 -1.1988e+00
  8.33000e-06  6.0000e-01  1.1965e+00 -1.1988e+00
  8.34000e-06  6.0000e-01  1.1965e+00 -1.1988e+00
  8.35000e-06  6.0000e-01  1.1965e+00 -1.1988e+00
  8.36000e-06  6.0000e-01  1.1965e+00 -1.1988e+00
  8.37000e-06  6.0000e-01  1.1965e+00 -1.1988e+00
  8.38000e-06  6.0000e-01  1.1965e+00 -1.1988e+00
  8.39000e-06  6.0000e-01  1.1965e+00 -1.1988e+00
  8.40000e-06  6.0000e-01  1.1965e+00 -1.1988e+00
  8.41000e-06  6.0000e-01  1.1965e+00 -1.1988e+00
  8.42000e-06  6.0000e-01  1.1965e+00 -1.1988e+00
  8.43000e-06  6.0000e-01  1.1965e+00 -1.1988e+00
  8.44000e-06  6.0000e-01  1.1965e+00 -1.1988e+00
  8.45000e-06  6.0000e-01  1.1966e+00 -1.1988e+00
  8.46000e-06  6.0000e-01  1.1966e+00 -1.1988e+00
  8.47000e-06  6.0000e-01  1.1966e+00 -1.1988e+00
  8.48000e-06  6.0000e-01  1.1966e+00 -1.1988e+00
  8.49000e-06  6.0000e-01  1.1966e+00 -1.1988e+00
  8.50000e-06  6.0000e-01  1.1966e+00 -1.1988e+00
  8.51000e-06  6.0000e-01  1.1966e+00 -1.1988e+00
  8.52000e-06  6.0000e-01  1.1966e+00 -1.1988e+00
  8.53000e-06  6.0000e-01  1.1966e+00 -1.1988e+00
  8.54000e-06  6.0000e-01  1.1966e+00 -1.1988e+00
  8.55000e-06  6.0000e-01  1.1966e+00 -1.1988e+00
  8.56000e-06  6.0000e-01  1.1966e+00 -1.1988e+00
  8.57000e-06  6.0000e-01  1.1966e+00 -1.1988e+00
  8.58000e-06  6.0000e-01  1.1966e+00 -1.1988e+00
  8.59000e-06  6.0000e-01  1.1966e+00 -1.1988e+00
  8.60000e-06  6.0000e-01  1.1966e+00 -1.1988e+00
  8.61000e-06  6.0000e-01  1.1967e+00 -1.1988e+00
  8.62000e-06  6.0000e-01  1.1967e+00 -1.1988e+00
  8.63000e-06  6.0000e-01  1.1967e+00 -1.1988e+00
  8.64000e-06  6.0000e-01  1.1967e+00 -1.1988e+00
  8.65000e-06  6.0000e-01  1.1967e+00 -1.1988e+00
  8.66000e-06  6.0000e-01  1.1967e+00 -1.1988e+00
  8.67000e-06  6.0000e-01  1.1967e+00 -1.1988e+00
  8.68000e-06  6.0000e-01  1.1967e+00 -1.1988e+00
  8.69000e-06  6.0000e-01  1.1967e+00 -1.1988e+00
  8.70000e-06  6.0000e-01  1.1967e+00 -1.1988e+00
  8.71000e-06  6.0000e-01  1.1967e+00 -1.1988e+00
  8.72000e-06  6.0000e-01  1.1967e+00 -1.1988e+00
  8.73000e-06  6.0000e-01  1.1967e+00 -1.1988e+00
  8.74000e-06  6.0000e-01  1.1967e+00 -1.1988e+00
  8.75000e-06  6.0000e-01  1.1967e+00 -1.1988e+00
  8.76000e-06  6.0000e-01  1.1968e+00 -1.1988e+00
  8.77000e-06  6.0000e-01  1.1968e+00 -1.1988e+00
  8.78000e-06  6.0000e-01  1.1968e+00 -1.1988e+00
  8.79000e-06  6.0000e-01  1.1968e+00 -1.1988e+00
  8.80000e-06  6.0000e-01  1.1968e+00 -1.1988e+00
  8.81000e-06  6.0000e-01  1.1968e+00 -1.1988e+00
  8.82000e-06  6.0000e-01  1.1968e+00 -1.1988e+00
  8.83000e-06  6.0000e-01  1.1968e+00 -1.1988e+00
  8.84000e-06  6.0000e-01  1.1968e+00 -1.1988e+00
  8.85000e-06  6.0000e-01  1.1968e+00 -1.1988e+00
  8.86000e-06  6.0000e-01  1.1968e+00 -1.1988e+00
  8.87000e-06  6.0000e-01  1.1968e+00 -1.1988e+00
  8.88000e-06  6.0000e-01  1.1968e+00 -1.1988e+00
  8.89000e-06  6.0000e-01  1.1968e+00 -1.1988e+00
  8.90000e-06  6.0000e-01  1.1968e+00 -1.1988e+00
  8.91000e-06  6.0000e-01  1.1968e+00 -1.1988e+00
  8.92000e-06  6.0000e-01  1.1969e+00 -1.1987e+00
  8.93000e-06  6.0000e-01  1.1969e+00 -1.1987e+00
  8.94000e-06  6.0000e-01  1.1969e+00 -1.1987e+00
  8.95000e-06  6.0000e-01  1.1969e+00 -1.1987e+00
  8.96000e-06  6.0000e-01  1.1969e+00 -1.1987e+00
  8.97000e-06  6.0000e-01  1.1969e+00 -1.1987e+00
  8.98000e-06  6.0000e-01  1.1969e+00 -1.1987e+00
  8.99000e-06  6.0000e-01  1.1969e+00 -1.1987e+00
  9.00000e-06  6.0000e-01  1.1969e+00 -1.1987e+00
  9.01000e-06  6.0000e-01  1.1969e+00 -1.1987e+00
  9.02000e-06  6.0000e-01  1.1969e+00 -1.1987e+00
  9.03000e-06  6.0000e-01  1.1969e+00 -1.1987e+00
  9.04000e-06  6.0000e-01  1.1969e+00 -1.1987e+00
  9.05000e-06  6.0000e-01  1.1969e+00 -1.1987e+00
  9.06000e-06  6.0000e-01  1.1969e+00 -1.1987e+00
  9.07000e-06  6.0000e-01  1.1970e+00 -1.1987e+00
  9.08000e-06  6.0000e-01  1.1970e+00 -1.1987e+00
  9.09000e-06  6.0000e-01  1.1970e+00 -1.1987e+00
  9.10000e-06  6.0000e-01  1.1970e+00 -1.1987e+00
  9.11000e-06  6.0000e-01  1.1970e+00 -1.1987e+00
  9.12000e-06  6.0000e-01  1.1970e+00 -1.1987e+00
  9.13000e-06  6.0000e-01  1.1970e+00 -1.1987e+00
  9.14000e-06  6.0000e-01  1.1970e+00 -1.1987e+00
  9.15000e-06  6.0000e-01  1.1970e+00 -1.1987e+00
  9.16000e-06  6.0000e-01  1.1970e+00 -1.1987e+00
  9.17000e-06  6.0000e-01  1.1970e+00 -1.1987e+00
  9.18000e-06  6.0000e-01  1.1970e+00 -1.1987e+00
  9.19000e-06  6.0000e-01  1.1970e+00 -1.1987e+00
  9.20000e-06  6.0000e-01  1.1970e+00 -1.1987e+00
  9.21000e-06  6.0000e-01  1.1970e+00 -1.1987e+00
  9.22000e-06  6.0000e-01  1.1970e+00 -1.1987e+00
  9.23000e-06  6.0000e-01  1.1971e+00 -1.1987e+00
  9.24000e-06  6.0000e-01  1.1971e+00 -1.1987e+00
  9.25000e-06  6.0000e-01  1.1971e+00 -1.1987e+00
  9.26000e-06  6.0000e-01  1.1971e+00 -1.1987e+00
  9.27000e-06  6.0000e-01  1.1971e+00 -1.1987e+00
  9.28000e-06  6.0000e-01  1.1971e+00 -1.1987e+00
  9.29000e-06  6.0000e-01  1.1971e+00 -1.1987e+00
  9.30000e-06  6.0000e-01  1.1971e+00 -1.1987e+00
  9.31000e-06  6.0000e-01  1.1971e+00 -1.1987e+00
  9.32000e-06  6.0000e-01  1.1971e+00 -1.1987e+00
  9.33000e-06  6.0000e-01  1.1971e+00 -1.1987e+00
  9.34000e-06  6.0000e-01  1.1971e+00 -1.1987e+00
  9.35000e-06  6.0000e-01  1.1971e+00 -1.1987e+00
  9.36000e-06  6.0000e-01  1.1971e+00 -1.1987e+00
  9.37000e-06  6.0000e-01  1.1971e+00 -1.1987e+00
  9.38000e-06  6.0000e-01  1.1972e+00 -1.1987e+00
  9.39000e-06  6.0000e-01  1.1972e+00 -1.1987e+00
  9.40000e-06  6.0000e-01  1.1972e+00 -1.1987e+00
  9.41000e-06  6.0000e-01  1.1972e+00 -1.1987e+00
  9.42000e-06  6.0000e-01  1.1972e+00 -1.1987e+00
  9.43000e-06  6.0000e-01  1.1972e+00 -1.1987e+00
  9.44000e-06  6.0000e-01  1.1972e+00 -1.1987e+00
  9.45000e-06  6.0000e-01  1.1972e+00 -1.1987e+00
  9.46000e-06  6.0000e-01  1.1972e+00 -1.1987e+00
  9.47000e-06  6.0000e-01  1.1972e+00 -1.1987e+00
  9.48000e-06  6.0000e-01  1.1972e+00 -1.1987e+00
  9.49000e-06  6.0000e-01  1.1972e+00 -1.1987e+00
  9.50000e-06  6.0000e-01  1.1972e+00 -1.1987e+00
  9.51000e-06  6.0000e-01  1.1972e+00 -1.1987e+00
  9.52000e-06  6.0000e-01  1.1972e+00 -1.1987e+00
  9.53000e-06  6.0000e-01  1.1973e+00 -1.1987e+00
  9.54000e-06  6.0000e-01  1.1973e+00 -1.1987e+00
  9.55000e-06  6.0000e-01  1.1973e+00 -1.1987e+00
  9.56000e-06  6.0000e-01  1.1973e+00 -1.1987e+00
  9.57000e-06  6.0000e-01  1.1973e+00 -1.1987e+00
  9.58000e-06  6.0000e-01  1.1973e+00 -1.1987e+00
  9.59000e-06  6.0000e-01  1.1973e+00 -1.1987e+00
  9.60000e-06  6.0000e-01  1.1973e+00 -1.1987e+00
  9.61000e-06  6.0000e-01  1.1973e+00 -1.1987e+00
  9.62000e-06  6.0000e-01  1.1973e+00 -1.1987e+00
  9.63000e-06  6.0000e-01  1.1973e+00 -1.1987e+00
  9.64000e-06  6.0000e-01  1.1973e+00 -1.1987e+00
  9.65000e-06  6.0000e-01  1.1973e+00 -1.1987e+00
  9.66000e-06  6.0000e-01  1.1973e+00 -1.1987e+00
  9.67000e-06  6.0000e-01  1.1973e+00 -1.1987e+00
  9.68000e-06  6.0000e-01  1.1973e+00 -1.1987e+00
  9.69000e-06  6.0000e-01  1.1974e+00 -1.1987e+00
  9.70000e-06  6.0000e-01  1.1974e+00 -1.1987e+00
  9.71000e-06  6.0000e-01  1.1974e+00 -1.1987e+00
  9.72000e-06  6.0000e-01  1.1974e+00 -1.1987e+00
  9.73000e-06  6.0000e-01  1.1974e+00 -1.1987e+00
  9.74000e-06  6.0000e-01  1.1974e+00 -1.1987e+00
  9.75000e-06  6.0000e-01  1.1974e+00 -1.1987e+00
  9.76000e-06  6.0000e-01  1.1974e+00 -1.1987e+00
  9.77000e-06  6.0000e-01  1.1974e+00 -1.1987e+00
  9.78000e-06  6.0000e-01  1.1974e+00 -1.1987e+00
  9.79000e-06  6.0000e-01  1.1974e+00 -1.1987e+00
  9.80000e-06  6.0000e-01  1.1974e+00 -1.1987e+00
  9.81000e-06  6.0000e-01  1.1974e+00 -1.1987e+00
  9.82000e-06  6.0000e-01  1.1974e+00 -1.1987e+00
  9.83000e-06  6.0000e-01  1.1974e+00 -1.1987e+00
  9.84000e-06  6.0000e-01  1.1975e+00 -1.1987e+00
  9.85000e-06  6.0000e-01  1.1975e+00 -1.1987e+00
  9.86000e-06  6.0000e-01  1.1975e+00 -1.1987e+00
  9.87000e-06  6.0000e-01  1.1975e+00 -1.1987e+00
  9.88000e-06  6.0000e-01  1.1975e+00 -1.1987e+00
  9.89000e-06  6.0000e-01  1.1975e+00 -1.1987e+00
  9.90000e-06  6.0000e-01  1.1975e+00 -1.1987e+00
  9.91000e-06  6.0000e-01  1.1975e+00 -1.1987e+00
  9.92000e-06  6.0000e-01  1.1975e+00 -1.1987e+00
  9.93000e-06  6.0000e-01  1.1975e+00 -1.1987e+00
  9.94000e-06  6.0000e-01  1.1975e+00 -1.1987e+00
  9.95000e-06  6.0000e-01  1.1975e+00 -1.1987e+00
  9.96000e-06  6.0000e-01  1.1975e+00 -1.1987e+00
  9.97000e-06  6.0000e-01  1.1975e+00 -1.1987e+00
  9.98000e-06  6.0000e-01  1.1975e+00 -1.1987e+00
  9.99000e-06  6.0000e-01  1.1975e+00 -1.1987e+00
  1.00000e-05  6.0000e-01  1.1976e+00 -1.1987e+00
  1.00100e-05  6.0000e-01  1.1976e+00 -1.1987e+00
  1.00200e-05  6.0000e-01  1.1976e+00 -1.1987e+00
  1.00300e-05  6.0000e-01  1.1976e+00 -1.1987e+00
  1.00400e-05  6.0000e-01  1.1976e+00 -1.1987e+00
  1.00500e-05  6.0000e-01  1.1976e+00 -1.1987e+00
  1.00600e-05  6.0000e-01  1.1976e+00 -1.1987e+00
  1.00700e-05  6.0000e-01  1.1976e+00 -1.1987e+00
  1.00800e-05  6.0000e-01  1.1976e+00 -1.1987e+00
  1.00900e-05  6.0000e-01  1.1976e+00 -1.1987e+00
  1.01000e-05  6.0000e-01  1.1976e+00 -1.1987e+00
  1.01100e-05  6.0000e-01  1.1976e+00 -1.1987e+00
  1.01200e-05  6.0000e-01  1.1976e+00 -1.1987e+00
  1.01300e-05  6.0000e-01  1.1976e+00 -1.1987e+00
  1.01400e-05  6.0000e-01  1.1976e+00 -1.1987e+00
  1.01500e-05  6.0000e-01  1.1977e+00 -1.1987e+00
  1.01600e-05  6.0000e-01  1.1977e+00 -1.1987e+00
  1.01700e-05  6.0000e-01  1.1977e+00 -1.1987e+00
  1.01800e-05  6.0000e-01  1.1977e+00 -1.1987e+00
  1.01900e-05  6.0000e-01  1.1977e+00 -1.1987e+00
  1.02000e-05  6.0000e-01  1.1977e+00 -1.1987e+00
  1.02100e-05  6.0000e-01  1.1977e+00 -1.1987e+00
  1.02200e-05  6.0000e-01  1.1977e+00 -1.1987e+00
  1.02300e-05  6.0000e-01  1.1977e+00 -1.1987e+00
  1.02400e-05  6.0000e-01  1.1977e+00 -1.1987e+00
  1.02500e-05  6.0000e-01  1.1977e+00 -1.1987e+00
  1.02600e-05  6.0000e-01  1.1977e+00 -1.1987e+00
  1.02700e-05  6.0000e-01  1.1977e+00 -1.1987e+00
  1.02800e-05  6.0000e-01  1.1977e+00 -1.1987e+00
  1.02900e-05  6.0000e-01  1.1977e+00 -1.1987e+00
  1.03000e-05  6.0000e-01  1.1977e+00 -1.1987e+00
  1.03100e-05  6.0000e-01  1.1978e+00 -1.1987e+00
  1.03200e-05  6.0000e-01  1.1978e+00 -1.1987e+00
  1.03300e-05  6.0000e-01  1.1978e+00 -1.1987e+00
  1.03400e-05  6.0000e-01  1.1978e+00 -1.1987e+00
  1.03500e-05  6.0000e-01  1.1978e+00 -1.1987e+00
  1.03600e-05  6.0000e-01  1.1978e+00 -1.1986e+00
  1.03700e-05  6.0000e-01  1.1978e+00 -1.1986e+00
  1.03800e-05  6.0000e-01  1.1978e+00 -1.1986e+00
  1.03900e-05  6.0000e-01  1.1978e+00 -1.1986e+00
  1.04000e-05  6.0000e-01  1.1978e+00 -1.1986e+00
  1.04100e-05  6.0000e-01  1.1978e+00 -1.1986e+00
  1.04200e-05  6.0000e-01  1.1978e+00 -1.1986e+00
  1.04300e-05  6.0000e-01  1.1978e+00 -1.1986e+00
  1.04400e-05  6.0000e-01  1.1978e+00 -1.1986e+00
  1.04500e-05  6.0000e-01  1.1978e+00 -1.1986e+00
  1.04600e-05  6.0000e-01  1.1979e+00 -1.1986e+00
  1.04700e-05  6.0000e-01  1.1979e+00 -1.1986e+00
  1.04800e-05  6.0000e-01  1.1979e+00 -1.1986e+00
  1.04900e-05  6.0000e-01  1.1979e+00 -1.1986e+00
  1.05000e-05  6.0000e-01  1.1979e+00 -1.1986e+00
  1.05100e-05  6.0000e-01  1.1979e+00 -1.1986e+00
  1.05200e-05  6.0000e-01  1.1979e+00 -1.1986e+00
  1.05300e-05  6.0000e-01  1.1979e+00 -1.1986e+00
  1.05400e-05  6.0000e-01  1.1979e+00 -1.1986e+00
  1.05500e-05  6.0000e-01  1.1979e+00 -1.1986e+00
  1.05600e-05  6.0000e-01  1.1979e+00 -1.1986e+00
  1.05700e-05  6.0000e-01  1.1979e+00 -1.1986e+00
  1.05800e-05  6.0000e-01  1.1979e+00 -1.1986e+00
  1.05900e-05  6.0000e-01  1.1979e+00 -1.1986e+00
  1.06000e-05  6.0000e-01  1.1979e+00 -1.1986e+00
  1.06100e-05  6.0000e-01  1.1979e+00 -1.1986e+00
  1.06200e-05  6.0000e-01  1.1980e+00 -1.1986e+00
  1.06300e-05  6.0000e-01  1.1980e+00 -1.1986e+00
  1.06400e-05  6.0000e-01  1.1980e+00 -1.1986e+00
  1.06500e-05  6.0000e-01  1.1980e+00 -1.1986e+00
  1.06600e-05  6.0000e-01  1.1980e+00 -1.1986e+00
  1.06700e-05  6.0000e-01  1.1980e+00 -1.1986e+00
  1.06800e-05  6.0000e-01  1.1980e+00 -1.1986e+00
  1.06900e-05  6.0000e-01  1.1980e+00 -1.1986e+00
  1.07000e-05  6.0000e-01  1.1980e+00 -1.1986e+00
  1.07100e-05  6.0000e-01  1.1980e+00 -1.1986e+00
  1.07200e-05  6.0000e-01  1.1980e+00 -1.1986e+00
  1.07300e-05  6.0000e-01  1.1980e+00 -1.1986e+00
  1.07400e-05  6.0000e-01  1.1980e+00 -1.1986e+00
  1.07500e-05  6.0000e-01  1.1980e+00 -1.1986e+00
  1.07600e-05  6.0000e-01  1.1979e+00 -1.1986e+00
  1.07700e-05  6.0000e-01  1.1979e+00 -1.1986e+00
  1.07800e-05  6.0000e-01  1.1979e+00 -1.1986e+00
  1.07900e-05  6.0000e-01  1.1979e+00 -1.1986e+00
  1.08000e-05  6.0000e-01  1.1979e+00 -1.1986e+00
  1.08100e-05  6.0000e-01  1.1979e+00 -1.1986e+00
  1.08200e-05  6.0000e-01  1.1979e+00 -1.1986e+00
  1.08300e-05  6.0000e-01  1.1979e+00 -1.1986e+00
  1.08400e-05  6.0000e-01  1.1979e+00 -1.1986e+00
  1.08500e-05  6.0000e-01  1.1979e+00 -1.1986e+00
  1.08600e-05  6.0000e-01  1.1979e+00 -1.1986e+00
  1.08700e-05  6.0000e-01  1.1979e+00 -1.1986e+00
  1.08800e-05  6.0000e-01  1.1979e+00 -1.1986e+00
  1.08900e-05  6.0000e-01  1.1979e+00 -1.1986e+00
  1.09000e-05  6.0000e-01  1.1979e+00 -1.1986e+00
  1.09100e-05  6.0000e-01  1.1979e+00 -1.1986e+00
  1.09200e-05  6.0000e-01  1.1979e+00 -1.1986e+00
  1.09300e-05  6.0000e-01  1.1979e+00 -1.1986e+00
  1.09400e-05  6.0000e-01  1.1979e+00 -1.1986e+00
  1.09500e-05  6.0000e-01  1.1978e+00 -1.1986e+00
  1.09600e-05  6.0000e-01  1.1978e+00 -1.1986e+00
  1.09700e-05  6.0000e-01  1.1978e+00 -1.1986e+00
  1.09800e-05  6.0000e-01  1.1978e+00 -1.1986e+00
  1.09900e-05  6.0000e-01  1.1978e+00 -1.1986e+00
  1.10000e-05  6.0000e-01  1.1978e+00 -1.1986e+00
  1.10100e-05  6.0000e-01  1.1978e+00 -1.1986e+00
  1.10200e-05  6.0000e-01  1.1978e+00 -1.1986e+00
  1.10300e-05  6.0000e-01  1.1978e+00 -1.1986e+00
  1.10400e-05  6.0000e-01  1.1978e+00 -1.1986e+00
  1.10500e-05  6.0000e-01  1.1978e+00 -1.1986e+00
  1.10600e-05  6.0000e-01  1.1978e+00 -1.1986e+00
  1.10700e-05  6.0000e-01  1.1978e+00 -1.1986e+00
  1.10800e-05  6.0000e-01  1.1978e+00 -1.1986e+00
  1.10900e-05  6.0000e-01  1.1978e+00 -1.1987e+00
  1.11000e-05  6.0000e-01  1.1978e+00 -1.1987e+00
  1.11100e-05  6.0000e-01  1.1978e+00 -1.1987e+00
  1.11200e-05  6.0000e-01  1.1978e+00 -1.1987e+00
  1.11300e-05  6.0000e-01  1.1978e+00 -1.1987e+00
  1.11400e-05  6.0000e-01  1.1977e+00 -1.1987e+00
  1.11500e-05  6.0000e-01  1.1977e+00 -1.1987e+00
  1.11600e-05  6.0000e-01  1.1977e+00 -1.1987e+00
  1.11700e-05  6.0000e-01  1.1977e+00 -1.1987e+00
  1.11800e-05  6.0000e-01  1.1977e+00 -1.1987e+00
  1.11900e-05  6.0000e-01  1.1977e+00 -1.1987e+00
  1.12000e-05  6.0000e-01  1.1977e+00 -1.1987e+00
  1.12100e-05  6.0000e-01  1.1977e+00 -1.1987e+00
  1.12200e-05  6.0000e-01  1.1977e+00 -1.1987e+00
  1.12300e-05  6.0000e-01  1.1977e+00 -1.1987e+00
  1.12400e-05  6.0000e-01  1.1977e+00 -1.1987e+00
  1.12500e-05  6.0000e-01  1.1977e+00 -1.1987e+00
  1.12600e-05  6.0000e-01  1.1977e+00 -1.1987e+00
  1.12700e-05  6.0000e-01  1.1977e+00 -1.1987e+00
  1.12800e-05  6.0000e-01  1.1977e+00 -1.1987e+00
  1.12900e-05  6.0000e-01  1.1977e+00 -1.1987e+00
  1.13000e-05  6.0000e-01  1.1977e+00 -1.1987e+00
  1.13100e-05  6.0000e-01  1.1977e+00 -1.1987e+00
  1.13200e-05  6.0000e-01  1.1977e+00 -1.1987e+00
  1.13300e-05  6.0000e-01  1.1976e+00 -1.1987e+00
  1.13400e-05  6.0000e-01  1.1976e+00 -1.1987e+00
  1.13500e-05  6.0000e-01  1.1976e+00 -1.1987e+00
  1.13600e-05  6.0000e-01  1.1976e+00 -1.1987e+00
  1.13700e-05  6.0000e-01  1.1976e+00 -1.1987e+00
  1.13800e-05  6.0000e-01  1.1976e+00 -1.1987e+00
  1.13900e-05  6.0000e-01  1.1976e+00 -1.1987e+00
  1.14000e-05  6.0000e-01  1.1976e+00 -1.1987e+00
  1.14100e-05  6.0000e-01  1.1976e+00 -1.1987e+00
  1.14200e-05  6.0000e-01  1.1976e+00 -1.1987e+00
  1.14300e-05  6.0000e-01  1.1976e+00 -1.1987e+00
  1.14400e-05  6.0000e-01  1.1976e+00 -1.1987e+00
  1.14500e-05  6.0000e-01  1.1976e+00 -1.1987e+00
  1.14600e-05  6.0000e-01  1.1976e+00 -1.1987e+00
  1.14700e-05  6.0000e-01  1.1976e+00 -1.1987e+00
  1.14800e-05  6.0000e-01  1.1976e+00 -1.1987e+00
  1.14900e-05  6.0000e-01  1.1976e+00 -1.1987e+00
  1.15000e-05  6.0000e-01  1.1976e+00 -1.1987e+00
  1.15100e-05  6.0000e-01  1.1976e+00 -1.1987e+00
  1.15200e-05  6.0000e-01  1.1975e+00 -1.1987e+00
  1.15300e-05  6.0000e-01  1.1975e+00 -1.1987e+00
  1.15400e-05  6.0000e-01  1.1975e+00 -1.1987e+00
  1.15500e-05  6.0000e-01  1.1975e+00 -1.1987e+00
  1.15600e-05  6.0000e-01  1.1975e+00 -1.1987e+00
  1.15700e-05  6.0000e-01  1.1975e+00 -1.1987e+00
  1.15800e-05  6.0000e-01  1.1975e+00 -1.1987e+00
  1.15900e-05  6.0000e-01  1.1975e+00 -1.1987e+00
  1.16000e-05  6.0000e-01  1.1975e+00 -1.1987e+00
  1.16100e-05  6.0000e-01  1.1975e+00 -1.1987e+00
  1.16200e-05  6.0000e-01  1.1975e+00 -1.1987e+00
  1.16300e-05  6.0000e-01  1.1975e+00 -1.1987e+00
  1.16400e-05  6.0000e-01  1.1975e+00 -1.1987e+00
  1.16500e-05  6.0000e-01  1.1975e+00 -1.1987e+00
  1.16600e-05  6.0000e-01  1.1975e+00 -1.1987e+00
  1.16700e-05  6.0000e-01  1.1975e+00 -1.1987e+00
  1.16800e-05  6.0000e-01  1.1975e+00 -1.1987e+00
  1.16900e-05  6.0000e-01  1.1975e+00 -1.1987e+00
  1.17000e-05  6.0000e-01  1.1975e+00 -1.1987e+00
  1.17100e-05  6.0000e-01  1.1974e+00 -1.1987e+00
  1.17200e-05  6.0000e-01  1.1974e+00 -1.1987e+00
  1.17300e-05  6.0000e-01  1.1974e+00 -1.1987e+00
  1.17400e-05  6.0000e-01  1.1974e+00 -1.1987e+00
  1.17500e-05  6.0000e-01  1.1974e+00 -1.1987e+00
  1.17600e-05  6.0000e-01  1.1974e+00 -1.1987e+00
  1.17700e-05  6.0000e-01  1.1974e+00 -1.1987e+00
  1.17800e-05  6.0000e-01  1.1974e+00 -1.1987e+00
  1.17900e-05  6.0000e-01  1.1974e+00 -1.1987e+00
  1.18000e-05  6.0000e-01  1.1974e+00 -1.1987e+00
  1.18100e-05  6.0000e-01  1.1974e+00 -1.1987e+00
  1.18200e-05  6.0000e-01  1.1974e+00 -1.1987e+00
  1.18300e-05  6.0000e-01  1.1974e+00 -1.1987e+00
  1.18400e-05  6.0000e-01  1.1974e+00 -1.1987e+00
  1.18500e-05  6.0000e-01  1.1974e+00 -1.1987e+00
  1.18600e-05  6.0000e-01  1.1974e+00 -1.1987e+00
  1.18700e-05  6.0000e-01  1.1974e+00 -1.1987e+00
  1.18800e-05  6.0000e-01  1.1974e+00 -1.1987e+00
  1.18900e-05  6.0000e-01  1.1974e+00 -1.1987e+00
  1.19000e-05  6.0000e-01  1.1973e+00 -1.1987e+00
  1.19100e-05  6.0000e-01  1.1973e+00 -1.1987e+00
  1.19200e-05  6.0000e-01  1.1973e+00 -1.1987e+00
  1.19300e-05  6.0000e-01  1.1973e+00 -1.1987e+00
  1.19400e-05  6.0000e-01  1.1973e+00 -1.1987e+00
  1.19500e-05  6.0000e-01  1.1973e+00 -1.1987e+00
  1.19600e-05  6.0000e-01  1.1973e+00 -1.1987e+00
  1.19700e-05  6.0000e-01  1.1973e+00 -1.1987e+00
  1.19800e-05  6.0000e-01  1.1973e+00 -1.1987e+00
  1.19900e-05  6.0000e-01  1.1973e+00 -1.1987e+00
  1.20000e-05  6.0000e-01  1.1973e+00 -1.1987e+00
  1.20100e-05  6.0000e-01  1.1973e+00 -1.1987e+00
  1.20200e-05  6.0000e-01  1.1973e+00 -1.1987e+00
  1.20300e-05  6.0000e-01  1.1973e+00 -1.1987e+00
  1.20400e-05  6.0000e-01  1.1973e+00 -1.1987e+00
  1.20500e-05  6.0000e-01  1.1973e+00 -1.1987e+00
  1.20600e-05  6.0000e-01  1.1973e+00 -1.1987e+00
  1.20700e-05  6.0000e-01  1.1973e+00 -1.1987e+00
  1.20800e-05  6.0000e-01  1.1973e+00 -1.1987e+00
  1.20900e-05  6.0000e-01  1.1972e+00 -1.1987e+00
  1.21000e-05  6.0000e-01  1.1972e+00 -1.1987e+00
  1.21100e-05  6.0000e-01  1.1972e+00 -1.1987e+00
  1.21200e-05  6.0000e-01  1.1972e+00 -1.1987e+00
  1.21300e-05  6.0000e-01  1.1972e+00 -1.1987e+00
  1.21400e-05  6.0000e-01  1.1972e+00 -1.1987e+00
  1.21500e-05  6.0000e-01  1.1972e+00 -1.1987e+00
  1.21600e-05  6.0000e-01  1.1972e+00 -1.1987e+00
  1.21700e-05  6.0000e-01  1.1972e+00 -1.1987e+00
  1.21800e-05  6.0000e-01  1.1972e+00 -1.1987e+00
  1.21900e-05  6.0000e-01  1.1972e+00 -1.1987e+00
  1.22000e-05  6.0000e-01  1.1972e+00 -1.1987e+00
  1.22100e-05  6.0000e-01  1.1972e+00 -1.1987e+00
  1.22200e-05  6.0000e-01  1.1972e+00 -1.1987e+00
  1.22300e-05  6.0000e-01  1.1972e+00 -1.1987e+00
  1.22400e-05  6.0000e-01  1.1972e+00 -1.1987e+00
  1.22500e-05  6.0000e-01  1.1972e+00 -1.1987e+00
  1.22600e-05  6.0000e-01  1.1972e+00 -1.1987e+00
  1.22700e-05  6.0000e-01  1.1972e+00 -1.1987e+00
  1.22800e-05  6.0000e-01  1.1971e+00 -1.1987e+00
  1.22900e-05  6.0000e-01  1.1971e+00 -1.1987e+00
  1.23000e-05  6.0000e-01  1.1971e+00 -1.1987e+00
  1.23100e-05  6.0000e-01  1.1971e+00 -1.1987e+00
  1.23200e-05  6.0000e-01  1.1971e+00 -1.1987e+00
  1.23300e-05  6.0000e-01  1.1971e+00 -1.1987e+00
  1.23400e-05  6.0000e-01  1.1971e+00 -1.1987e+00
  1.23500e-05  6.0000e-01  1.1971e+00 -1.1987e+00
  1.23600e-05  6.0000e-01  1.1971e+00 -1.1987e+00
  1.23700e-05  6.0000e-01  1.1971e+00 -1.1987e+00
  1.23800e-05  6.0000e-01  1.1971e+00 -1.1987e+00
  1.23900e-05  6.0000e-01  1.1971e+00 -1.1987e+00
  1.24000e-05  6.0000e-01  1.1971e+00 -1.1987e+00
  1.24100e-05  6.0000e-01  1.1971e+00 -1.1987e+00
  1.24200e-05  6.0000e-01  1.1971e+00 -1.1987e+00
  1.24300e-05  6.0000e-01  1.1971e+00 -1.1987e+00
  1.24400e-05  6.0000e-01  1.1971e+00 -1.1987e+00
  1.24500e-05  6.0000e-01  1.1971e+00 -1.1987e+00
  1.24600e-05  6.0000e-01  1.1971e+00 -1.1987e+00
  1.24700e-05  6.0000e-01  1.1970e+00 -1.1987e+00
  1.24800e-05  6.0000e-01  1.1970e+00 -1.1987e+00
  1.24900e-05  6.0000e-01  1.1970e+00 -1.1987e+00
  1.25000e-05  6.0000e-01  1.1970e+00 -1.1987e+00
  1.25100e-05  6.0000e-01  1.1970e+00 -1.1987e+00
  1.25200e-05  6.0000e-01  1.1970e+00 -1.1987e+00
  1.25300e-05  6.0000e-01  1.1970e+00 -1.1987e+00
  1.25400e-05  6.0000e-01  1.1970e+00 -1.1987e+00
  1.25500e-05  6.0000e-01  1.1970e+00 -1.1987e+00
  1.25600e-05  6.0000e-01  1.1970e+00 -1.1987e+00
  1.25700e-05  6.0000e-01  1.1970e+00 -1.1987e+00
  1.25800e-05  6.0000e-01  1.1970e+00 -1.1987e+00
  1.25900e-05  6.0000e-01  1.1970e+00 -1.1987e+00
  1.26000e-05  6.0000e-01  1.1970e+00 -1.1987e+00
  1.26100e-05  6.0000e-01  1.1970e+00 -1.1987e+00
  1.26200e-05  6.0000e-01  1.1970e+00 -1.1987e+00
  1.26300e-05  6.0000e-01  1.1970e+00 -1.1987e+00
  1.26400e-05  6.0000e-01  1.1970e+00 -1.1987e+00
  1.26500e-05  6.0000e-01  1.1970e+00 -1.1987e+00
  1.26600e-05  6.0000e-01  1.1969e+00 -1.1987e+00
  1.26700e-05  6.0000e-01  1.1969e+00 -1.1987e+00
  1.26800e-05  6.0000e-01  1.1969e+00 -1.1987e+00
  1.26900e-05  6.0000e-01  1.1969e+00 -1.1987e+00
  1.27000e-05  6.0000e-01  1.1969e+00 -1.1987e+00
  1.27100e-05  6.0000e-01  1.1969e+00 -1.1987e+00
  1.27200e-05  6.0000e-01  1.1969e+00 -1.1987e+00
  1.27300e-05  6.0000e-01  1.1969e+00 -1.1987e+00
  1.27400e-05  6.0000e-01  1.1969e+00 -1.1987e+00
  1.27500e-05  6.0000e-01  1.1969e+00 -1.1987e+00
  1.27600e-05  6.0000e-01  1.1969e+00 -1.1987e+00
  1.27700e-05  6.0000e-01  1.1969e+00 -1.1987e+00
  1.27800e-05  6.0000e-01  1.1969e+00 -1.1987e+00
  1.27900e-05  6.0000e-01  1.1969e+00 -1.1987e+00
  1.28000e-05  6.0000e-01  1.1969e+00 -1.1987e+00
  1.28100e-05  6.0000e-01  1.1969e+00 -1.1987e+00
  1.28200e-05  6.0000e-01  1.1969e+00 -1.1987e+00
  1.28300e-05  6.0000e-01  1.1969e+00 -1.1987e+00
  1.28400e-05  6.0000e-01  1.1969e+00 -1.1987e+00
  1.28500e-05  6.0000e-01  1.1968e+00 -1.1987e+00
  1.28600e-05  6.0000e-01  1.1968e+00 -1.1987e+00
  1.28700e-05  6.0000e-01  1.1968e+00 -1.1987e+00
  1.28800e-05  6.0000e-01  1.1968e+00 -1.1987e+00
  1.28900e-05  6.0000e-01  1.1968e+00 -1.1987e+00
  1.29000e-05  6.0000e-01  1.1968e+00 -1.1987e+00
  1.29100e-05  6.0000e-01  1.1968e+00 -1.1987e+00
  1.29200e-05  6.0000e-01  1.1968e+00 -1.1987e+00
  1.29300e-05  6.0000e-01  1.1968e+00 -1.1988e+00
  1.29400e-05  6.0000e-01  1.1968e+00 -1.1988e+00
  1.29500e-05  6.0000e-01  1.1968e+00 -1.1988e+00
  1.29600e-05  6.0000e-01  1.1968e+00 -1.1988e+00
  1.29700e-05  6.0000e-01  1.1968e+00 -1.1988e+00
  1.29800e-05  6.0000e-01  1.1968e+00 -1.1988e+00
  1.29900e-05  6.0000e-01  1.1968e+00 -1.1988e+00
  1.30000e-05  6.0000e-01  1.1968e+00 -1.1988e+00
  1.30100e-05  6.0000e-01  1.1968e+00 -1.1988e+00
  1.30200e-05  6.0000e-01  1.1968e+00 -1.1988e+00
  1.30300e-05  6.0000e-01  1.1968e+00 -1.1988e+00
  1.30400e-05  6.0000e-01  1.1967e+00 -1.1988e+00
  1.30500e-05  6.0000e-01  1.1967e+00 -1.1988e+00
  1.30600e-05  6.0000e-01  1.1967e+00 -1.1988e+00
  1.30700e-05  6.0000e-01  1.1967e+00 -1.1988e+00
  1.30800e-05  6.0000e-01  1.1967e+00 -1.1988e+00
  1.30900e-05  6.0000e-01  1.1967e+00 -1.1988e+00
  1.31000e-05  6.0000e-01  1.1967e+00 -1.1988e+00
  1.31100e-05  6.0000e-01  1.1967e+00 -1.1988e+00
  1.31200e-05  6.0000e-01  1.1967e+00 -1.1988e+00
  1.31300e-05  6.0000e-01  1.1967e+00 -1.1988e+00
  1.31400e-05  6.0000e-01  1.1967e+00 -1.1988e+00
  1.31500e-05  6.0000e-01  1.1967e+00 -1.1988e+00
  1.31600e-05  6.0000e-01  1.1967e+00 -1.1988e+00
  1.31700e-05  6.0000e-01  1.1967e+00 -1.1988e+00
  1.31800e-05  6.0000e-01  1.1967e+00 -1.1988e+00
  1.31900e-05  6.0000e-01  1.1967e+00 -1.1988e+00
  1.32000e-05  6.0000e-01  1.1967e+00 -1.1988e+00
  1.32100e-05  6.0000e-01  1.1967e+00 -1.1988e+00
  1.32200e-05  6.0000e-01  1.1967e+00 -1.1988e+00
  1.32300e-05  6.0000e-01  1.1966e+00 -1.1988e+00
  1.32400e-05  6.0000e-01  1.1966e+00 -1.1988e+00
  1.32500e-05  6.0000e-01  1.1966e+00 -1.1988e+00
  1.32600e-05  6.0000e-01  1.1966e+00 -1.1988e+00
  1.32700e-05  6.0000e-01  1.1966e+00 -1.1988e+00
  1.32800e-05  6.0000e-01  1.1966e+00 -1.1988e+00
  1.32900e-05  6.0000e-01  1.1966e+00 -1.1988e+00
  1.33000e-05  6.0000e-01  1.1966e+00 -1.1988e+00
  1.33100e-05  6.0000e-01  1.1966e+00 -1.1988e+00
  1.33200e-05  6.0000e-01  1.1966e+00 -1.1988e+00
  1.33300e-05  6.0000e-01  1.1966e+00 -1.1988e+00
  1.33400e-05  6.0000e-01  1.1966e+00 -1.1988e+00
  1.33500e-05  6.0000e-01  1.1966e+00 -1.1988e+00
  1.33600e-05  6.0000e-01  1.1966e+00 -1.1988e+00
  1.33700e-05  6.0000e-01  1.1966e+00 -1.1988e+00
  1.33800e-05  6.0000e-01  1.1966e+00 -1.1988e+00
  1.33900e-05  6.0000e-01  1.1966e+00 -1.1988e+00
  1.34000e-05  6.0000e-01  1.1966e+00 -1.1988e+00
  1.34100e-05  6.0000e-01  1.1966e+00 -1.1988e+00
  1.34200e-05  6.0000e-01  1.1965e+00 -1.1988e+00
  1.34300e-05  6.0000e-01  1.1965e+00 -1.1988e+00
  1.34400e-05  6.0000e-01  1.1965e+00 -1.1988e+00
  1.34500e-05  6.0000e-01  1.1965e+00 -1.1988e+00
  1.34600e-05  6.0000e-01  1.1965e+00 -1.1988e+00
  1.34700e-05  6.0000e-01  1.1965e+00 -1.1988e+00
  1.34800e-05  6.0000e-01  1.1965e+00 -1.1988e+00
  1.34900e-05  6.0000e-01  1.1965e+00 -1.1988e+00
  1.35000e-05  6.0000e-01  1.1965e+00 -1.1988e+00
  1.35100e-05  6.0000e-01  1.1965e+00 -1.1988e+00
  1.35200e-05  6.0000e-01  1.1965e+00 -1.1988e+00
  1.35300e-05  6.0000e-01  1.1965e+00 -1.1988e+00
  1.35400e-05  6.0000e-01  1.1965e+00 -1.1988e+00
  1.35500e-05  6.0000e-01  1.1965e+00 -1.1988e+00
  1.35600e-05  6.0000e-01  1.1965e+00 -1.1988e+00
  1.35700e-05  6.0000e-01  1.1965e+00 -1.1988e+00
  1.35800e-05  6.0000e-01  1.1965e+00 -1.1988e+00
  1.35900e-05  6.0000e-01  1.1965e+00 -1.1988e+00
  1.36000e-05  6.0000e-01  1.1965e+00 -1.1988e+00
  1.36100e-05  6.0000e-01  1.1964e+00 -1.1988e+00
  1.36200e-05  6.0000e-01  1.1964e+00 -1.1988e+00
  1.36300e-05  6.0000e-01  1.1964e+00 -1.1988e+00
  1.36400e-05  6.0000e-01  1.1964e+00 -1.1988e+00
  1.36500e-05  6.0000e-01  1.1964e+00 -1.1988e+00
  1.36600e-05  6.0000e-01  1.1964e+00 -1.1988e+00
  1.36700e-05  6.0000e-01  1.1964e+00 -1.1988e+00
  1.36800e-05  6.0000e-01  1.1964e+00 -1.1988e+00
  1.36900e-05  6.0000e-01  1.1964e+00 -1.1988e+00
  1.37000e-05  6.0000e-01  1.1964e+00 -1.1988e+00
  1.37100e-05  6.0000e-01  1.1964e+00 -1.1988e+00
  1.37200e-05  6.0000e-01  1.1964e+00 -1.1988e+00
  1.37300e-05  6.0000e-01  1.1964e+00 -1.1988e+00
  1.37400e-05  6.0000e-01  1.1964e+00 -1.1988e+00
  1.37500e-05  6.0000e-01  1.1964e+00 -1.1988e+00
  1.37600e-05  6.0000e-01  1.1964e+00 -1.1988e+00
  1.37700e-05  6.0000e-01  1.1964e+00 -1.1988e+00
  1.37800e-05  6.0000e-01  1.1964e+00 -1.1988e+00
  1.37900e-05  6.0000e-01  1.1964e+00 -1.1988e+00
  1.38000e-05  6.0000e-01  1.1963e+00 -1.1988e+00
  1.38100e-05  6.0000e-01  1.1963e+00 -1.1988e+00
  1.38200e-05  6.0000e-01  1.1963e+00 -1.1988e+00
  1.38300e-05  6.0000e-01  1.1963e+00 -1.1988e+00
  1.38400e-05  6.0000e-01  1.1963e+00 -1.1988e+00
  1.38500e-05  6.0000e-01  1.1963e+00 -1.1988e+00
  1.38600e-05  6.0000e-01  1.1963e+00 -1.1988e+00
  1.38700e-05  6.0000e-01  1.1963e+00 -1.1988e+00
  1.38800e-05  6.0000e-01  1.1963e+00 -1.1988e+00
  1.38900e-05  6.0000e-01  1.1963e+00 -1.1988e+00
  1.39000e-05  6.0000e-01  1.1963e+00 -1.1988e+00
  1.39100e-05  6.0000e-01  1.1963e+00 -1.1988e+00
  1.39200e-05  6.0000e-01  1.1963e+00 -1.1988e+00
  1.39300e-05  6.0000e-01  1.1963e+00 -1.1988e+00
  1.39400e-05  6.0000e-01  1.1963e+00 -1.1988e+00
  1.39500e-05  6.0000e-01  1.1963e+00 -1.1988e+00
  1.39600e-05  6.0000e-01  1.1963e+00 -1.1988e+00
  1.39700e-05  6.0000e-01  1.1963e+00 -1.1988e+00
  1.39800e-05  6.0000e-01  1.1963e+00 -1.1988e+00
  1.39900e-05  6.0000e-01  1.1962e+00 -1.1988e+00
  1.40000e-05  6.0000e-01  1.1962e+00 -1.1988e+00
  1.40100e-05  6.0000e-01  1.1962e+00 -1.1988e+00
  1.40200e-05  6.0000e-01  1.1962e+00 -1.1988e+00
  1.40300e-05  6.0000e-01  1.1962e+00 -1.1988e+00
  1.40400e-05  6.0000e-01  1.1962e+00 -1.1988e+00
  1.40500e-05  6.0000e-01  1.1962e+00 -1.1988e+00
  1.40600e-05  6.0000e-01  1.1962e+00 -1.1988e+00
  1.40700e-05  6.0000e-01  1.1962e+00 -1.1988e+00
  1.40800e-05  6.0000e-01  1.1962e+00 -1.1988e+00
  1.40900e-05  6.0000e-01  1.1962e+00 -1.1988e+00
  1.41000e-05  6.0000e-01  1.1962e+00 -1.1988e+00
  1.41100e-05  6.0000e-01  1.1962e+00 -1.1988e+00
  1.41200e-05  6.0000e-01  1.1962e+00 -1.1988e+00
  1.41300e-05  6.0000e-01  1.1962e+00 -1.1988e+00
  1.41400e-05  6.0000e-01  1.1962e+00 -1.1988e+00
  1.41500e-05  6.0000e-01  1.1962e+00 -1.1988e+00
  1.41600e-05  6.0000e-01  1.1962e+00 -1.1988e+00
  1.41700e-05  6.0000e-01  1.1962e+00 -1.1988e+00
  1.41800e-05  6.0000e-01  1.1962e+00 -1.1988e+00
  1.41900e-05  6.0000e-01  1.1962e+00 -1.1988e+00
  1.42000e-05  6.0000e-01  1.1962e+00 -1.1988e+00
  1.42100e-05  6.0000e-01  1.1962e+00 -1.1988e+00
  1.42200e-05  6.0000e-01  1.1962e+00 -1.1988e+00
  1.42300e-05  6.0000e-01  1.1962e+00 -1.1988e+00
  1.42400e-05  6.0000e-01  1.1962e+00 -1.1988e+00
  1.42500e-05  6.0000e-01  1.1962e+00 -1.1988e+00
  1.42600e-05  6.0000e-01  1.1962e+00 -1.1988e+00
  1.42700e-05  6.0000e-01  1.1962e+00 -1.1988e+00
  1.42800e-05  6.0000e-01  1.1962e+00 -1.1988e+00
  1.42900e-05  6.0000e-01  1.1962e+00 -1.1988e+00
  1.43000e-05  6.0000e-01  1.1962e+00 -1.1988e+00
  1.43100e-05  6.0000e-01  1.1962e+00 -1.1988e+00
  1.43200e-05  6.0000e-01  1.1962e+00 -1.1988e+00
  1.43300e-05  6.0000e-01  1.1962e+00 -1.1988e+00
  1.43400e-05  6.0000e-01  1.1962e+00 -1.1988e+00
  1.43500e-05  6.0000e-01  1.1962e+00 -1.1988e+00
  1.43600e-05  6.0000e-01  1.1963e+00 -1.1988e+00
  1.43700e-05  6.0000e-01  1.1963e+00 -1.1988e+00
  1.43800e-05  6.0000e-01  1.1963e+00 -1.1988e+00
  1.43900e-05  6.0000e-01  1.1963e+00 -1.1988e+00
  1.44000e-05  6.0000e-01  1.1963e+00 -1.1988e+00
  1.44100e-05  6.0000e-01  1.1963e+00 -1.1988e+00
  1.44200e-05  6.0000e-01  1.1963e+00 -1.1988e+00
  1.44300e-05  6.0000e-01  1.1963e+00 -1.1988e+00
  1.44400e-05  6.0000e-01  1.1963e+00 -1.1988e+00
  1.44500e-05  6.0000e-01  1.1963e+00 -1.1988e+00
  1.44600e-05  6.0000e-01  1.1963e+00 -1.1988e+00
  1.44700e-05  6.0000e-01  1.1963e+00 -1.1988e+00
  1.44800e-05  6.0000e-01  1.1963e+00 -1.1988e+00
  1.44900e-05  6.0000e-01  1.1963e+00 -1.1988e+00
  1.45000e-05  6.0000e-01  1.1963e+00 -1.1988e+00
  1.45100e-05  6.0000e-01  1.1963e+00 -1.1988e+00
  1.45200e-05  6.0000e-01  1.1963e+00 -1.1988e+00
  1.45300e-05  6.0000e-01  1.1963e+00 -1.1988e+00
  1.45400e-05  6.0000e-01  1.1963e+00 -1.1988e+00
  1.45500e-05  6.0000e-01  1.1963e+00 -1.1988e+00
  1.45600e-05  6.0000e-01  1.1963e+00 -1.1988e+00
  1.45700e-05  6.0000e-01  1.1963e+00 -1.1988e+00
  1.45800e-05  6.0000e-01  1.1963e+00 -1.1988e+00
  1.45900e-05  6.0000e-01  1.1964e+00 -1.1988e+00
  1.46000e-05  6.0000e-01  1.1964e+00 -1.1988e+00
  1.46100e-05  6.0000e-01  1.1964e+00 -1.1988e+00
  1.46200e-05  6.0000e-01  1.1964e+00 -1.1988e+00
  1.46300e-05  6.0000e-01  1.1964e+00 -1.1988e+00
  1.46400e-05  6.0000e-01  1.1964e+00 -1.1988e+00
  1.46500e-05  6.0000e-01  1.1964e+00 -1.1988e+00
  1.46600e-05  6.0000e-01  1.1964e+00 -1.1988e+00
  1.46700e-05  6.0000e-01  1.1964e+00 -1.1988e+00
  1.46800e-05  6.0000e-01  1.1964e+00 -1.1988e+00
  1.46900e-05  6.0000e-01  1.1964e+00 -1.1988e+00
  1.47000e-05  6.0000e-01  1.1964e+00 -1.1988e+00
  1.47100e-05  6.0000e-01  1.1964e+00 -1.1988e+00
  1.47200e-05  6.0000e-01  1.1964e+00 -1.1988e+00
  1.47300e-05  6.0000e-01  1.1964e+00 -1.1988e+00
  1.47400e-05  6.0000e-01  1.1964e+00 -1.1988e+00
  1.47500e-05  6.0000e-01  1.1964e+00 -1.1988e+00
  1.47600e-05  6.0000e-01  1.1964e+00 -1.1988e+00
  1.47700e-05  6.0000e-01  1.1964e+00 -1.1988e+00
  1.47800e-05  6.0000e-01  1.1964e+00 -1.1988e+00
  1.47900e-05  6.0000e-01  1.1964e+00 -1.1988e+00
  1.48000e-05  6.0000e-01  1.1964e+00 -1.1988e+00
  1.48100e-05  6.0000e-01  1.1964e+00 -1.1988e+00
  1.48200e-05  6.0000e-01  1.1965e+00 -1.1988e+00
  1.48300e-05  6.0000e-01  1.1965e+00 -1.1988e+00
  1.48400e-05  6.0000e-01  1.1965e+00 -1.1988e+00
  1.48500e-05  6.0000e-01  1.1965e+00 -1.1988e+00
  1.48600e-05  6.0000e-01  1.1965e+00 -1.1988e+00
  1.48700e-05  6.0000e-01  1.1965e+00 -1.1988e+00
  1.48800e-05  6.0000e-01  1.1965e+00 -1.1988e+00
  1.48900e-05  6.0000e-01  1.1965e+00 -1.1988e+00
  1.49000e-05  6.0000e-01  1.1965e+00 -1.1988e+00
  1.49100e-05  6.0000e-01  1.1965e+00 -1.1988e+00
  1.49200e-05  6.0000e-01  1.1965e+00 -1.1988e+00
  1.49300e-05  6.0000e-01  1.1965e+00 -1.1988e+00
  1.49400e-05  6.0000e-01  1.1965e+00 -1.1988e+00
  1.49500e-05  6.0000e-01  1.1965e+00 -1.1988e+00
  1.49600e-05  6.0000e-01  1.1965e+00 -1.1988e+00
  1.49700e-05  6.0000e-01  1.1965e+00 -1.1988e+00
  1.49800e-05  6.0000e-01  1.1965e+00 -1.1988e+00
  1.49900e-05  6.0000e-01  1.1965e+00 -1.1988e+00
  1.50000e-05  6.0000e-01  1.1965e+00 -1.1988e+00
  1.50100e-05  6.0000e-01  1.1965e+00 -1.1988e+00
  1.50200e-05  6.0000e-01  1.1965e+00 -1.1988e+00
  1.50300e-05  6.0000e-01  1.1965e+00 -1.1988e+00
  1.50400e-05  6.0000e-01  1.1966e+00 -1.1988e+00
  1.50500e-05  6.0000e-01  1.1966e+00 -1.1988e+00
  1.50600e-05  6.0000e-01  1.1966e+00 -1.1988e+00
  1.50700e-05  6.0000e-01  1.1966e+00 -1.1988e+00
  1.50800e-05  6.0000e-01  1.1966e+00 -1.1988e+00
  1.50900e-05  6.0000e-01  1.1966e+00 -1.1988e+00
  1.51000e-05  6.0000e-01  1.1966e+00 -1.1988e+00
  1.51100e-05  6.0000e-01  1.1966e+00 -1.1988e+00
  1.51200e-05  6.0000e-01  1.1966e+00 -1.1988e+00
  1.51300e-05  6.0000e-01  1.1966e+00 -1.1988e+00
  1.51400e-05  6.0000e-01  1.1966e+00 -1.1988e+00
  1.51500e-05  6.0000e-01  1.1966e+00 -1.1988e+00
  1.51600e-05  6.0000e-01  1.1966e+00 -1.1988e+00
  1.51700e-05  6.0000e-01  1.1966e+00 -1.1988e+00
  1.51800e-05  6.0000e-01  1.1966e+00 -1.1988e+00
  1.51900e-05  6.0000e-01  1.1966e+00 -1.1988e+00
  1.52000e-05  6.0000e-01  1.1966e+00 -1.1988e+00
  1.52100e-05  6.0000e-01  1.1966e+00 -1.1988e+00
  1.52200e-05  6.0000e-01  1.1966e+00 -1.1988e+00
  1.52300e-05  6.0000e-01  1.1966e+00 -1.1988e+00
  1.52400e-05  6.0000e-01  1.1966e+00 -1.1988e+00
  1.52500e-05  6.0000e-01  1.1966e+00 -1.1988e+00
  1.52600e-05  6.0000e-01  1.1966e+00 -1.1988e+00
  1.52700e-05  6.0000e-01  1.1967e+00 -1.1988e+00
  1.52800e-05  6.0000e-01  1.1967e+00 -1.1988e+00
  1.52900e-05  6.0000e-01  1.1967e+00 -1.1988e+00
  1.53000e-05  6.0000e-01  1.1967e+00 -1.1988e+00
  1.53100e-05  6.0000e-01  1.1967e+00 -1.1988e+00
  1.53200e-05  6.0000e-01  1.1967e+00 -1.1988e+00
  1.53300e-05  6.0000e-01  1.1967e+00 -1.1988e+00
  1.53400e-05  6.0000e-01  1.1967e+00 -1.1988e+00
  1.53500e-05  6.0000e-01  1.1967e+00 -1.1988e+00
  1.53600e-05  6.0000e-01  1.1967e+00 -1.1988e+00
  1.53700e-05  6.0000e-01  1.1967e+00 -1.1988e+00
  1.53800e-05  6.0000e-01  1.1967e+00 -1.1988e+00
  1.53900e-05  6.0000e-01  1.1967e+00 -1.1988e+00
  1.54000e-05  6.0000e-01  1.1967e+00 -1.1988e+00
  1.54100e-05  6.0000e-01  1.1967e+00 -1.1988e+00
[...]
  1.96450e-04  6.0000e-01  1.1971e+00 -1.1987e+00
  1.96460e-04  6.0000e-01  1.1971e+00 -1.1987e+00
  1.96470e-04  6.0000e-01  1.1971e+00 -1.1987e+00
  1.96480e-04  6.0000e-01  1.1971e+00 -1.1987e+00
  1.96490e-04  6.0000e-01  1.1971e+00 -1.1987e+00
  1.96500e-04  6.0000e-01  1.1971e+00 -1.1987e+00
  1.96510e-04  6.0000e-01  1.1971e+00 -1.1987e+00
  1.96520e-04  6.0000e-01  1.1971e+00 -1.1987e+00
  1.96530e-04  6.0000e-01  1.1971e+00 -1.1987e+00
  1.96540e-04  6.0000e-01  1.1971e+00 -1.1987e+00
  1.96550e-04  6.0000e-01  1.1971e+00 -1.1987e+00
  1.96560e-04  6.0000e-01  1.1971e+00 -1.1987e+00
  1.96570e-04  6.0000e-01  1.1971e+00 -1.1987e+00
  1.96580e-04  6.0000e-01  1.1971e+00 -1.1987e+00
  1.96590e-04  6.0000e-01  1.1971e+00 -1.1987e+00
  1.96600e-04  6.0000e-01  1.1971e+00 -1.1987e+00
  1.96610e-04  6.0000e-01  1.1971e+00 -1.1987e+00
  1.96620e-04  6.0000e-01  1.1971e+00 -1.1987e+00
  1.96630e-04  6.0000e-01  1.1971e+00 -1.1987e+00
  1.96640e-04  6.0000e-01  1.1971e+00 -1.1987e+00
  1.96650e-04  6.0000e-01  1.1971e+00 -1.1987e+00
  1.96660e-04  6.0000e-01  1.1971e+00 -1.1987e+00
  1.96670e-04  6.0000e-01  1.1971e+00 -1.1987e+00
  1.96680e-04  6.0000e-01  1.1971e+00 -1.1987e+00
  1.96690e-04  6.0000e-01  1.1971e+00 -1.1987e+00
  1.96700e-04  6.0000e-01  1.1971e+00 -1.1987e+00
  1.96710e-04  6.0000e-01  1.1971e+00 -1.1987e+00
  1.96720e-04  6.0000e-01  1.1971e+00 -1.1987e+00
  1.96730e-04  6.0000e-01  1.1971e+00 -1.1987e+00
  1.96740e-04  6.0000e-01  1.1971e+00 -1.1987e+00
  1.96750e-04  6.0000e-01  1.1971e+00 -1.1987e+00
  1.96760e-04  6.0000e-01  1.1971e+00 -1.1987e+00
  1.96770e-04  6.0000e-01  1.1971e+00 -1.1987e+00
  1.96780e-04  6.0000e-01  1.1971e+00 -1.1987e+00
  1.96790e-04  6.0000e-01  1.1971e+00 -1.1987e+00
  1.96800e-04  6.0000e-01  1.1971e+00 -1.1987e+00
  1.96810e-04  6.0000e-01  1.1971e+00 -1.1987e+00
  1.96820e-04  6.0000e-01  1.1971e+00 -1.1987e+00
  1.96830e-04  6.0000e-01  1.1971e+00 -1.1987e+00
  1.96840e-04  6.0000e-01  1.1971e+00 -1.1987e+00
  1.96850e-04  6.0000e-01  1.1971e+00 -1.1987e+00
  1.96860e-04  6.0000e-01  1.1971e+00 -1.1987e+00
  1.96870e-04  6.0000e-01  1.1971e+00 -1.1987e+00
  1.96880e-04  6.0000e-01  1.1971e+00 -1.1987e+00
  1.96890e-04  6.0000e-01  1.1971e+00 -1.1987e+00
  1.96900e-04  6.0000e-01  1.1971e+00 -1.1987e+00
  1.96910e-04  6.0000e-01  1.1971e+00 -1.1987e+00
  1.96920e-04  6.0000e-01  1.1971e+00 -1.1987e+00
  1.96930e-04  6.0000e-01  1.1971e+00 -1.1987e+00
  1.96940e-04  6.0000e-01  1.1971e+00 -1.1987e+00
  1.96950e-04  6.0000e-01  1.1971e+00 -1.1987e+00
  1.96960e-04  6.0000e-01  1.1971e+00 -1.1987e+00
  1.96970e-04  6.0000e-01  1.1971e+00 -1.1987e+00
  1.96980e-04  6.0000e-01  1.1971e+00 -1.1987e+00
  1.96990e-04  6.0000e-01  1.1971e+00 -1.1987e+00
  1.97000e-04  6.0000e-01  1.1971e+00 -1.1987e+00
  1.97010e-04  6.0000e-01  1.1971e+00 -1.1987e+00
  1.97020e-04  6.0000e-01  1.1971e+00 -1.1987e+00
  1.97030e-04  6.0000e-01  1.1971e+00 -1.1987e+00
  1.97040e-04  6.0000e-01  1.1971e+00 -1.1987e+00
  1.97050e-04  6.0000e-01  1.1971e+00 -1.1987e+00
  1.97060e-04  6.0000e-01  1.1971e+00 -1.1987e+00
  1.97070e-04  6.0000e-01  1.1971e+00 -1.1987e+00
  1.97080e-04  6.0000e-01  1.1971e+00 -1.1987e+00
  1.97090e-04  6.0000e-01  1.1971e+00 -1.1987e+00
  1.97100e-04  6.0000e-01  1.1971e+00 -1.1987e+00
  1.97110e-04  6.0000e-01  1.1971e+00 -1.1987e+00
  1.97120e-04  6.0000e-01  1.1971e+00 -1.1987e+00
  1.97130e-04  6.0000e-01  1.1971e+00 -1.1987e+00
  1.97140e-04  6.0000e-01  1.1971e+00 -1.1987e+00
  1.97150e-04  6.0000e-01  1.1971e+00 -1.1987e+00
  1.97160e-04  6.0000e-01  1.1971e+00 -1.1987e+00
  1.97170e-04  6.0000e-01  1.1971e+00 -1.1987e+00
  1.97180e-04  6.0000e-01  1.1971e+00 -1.1987e+00
  1.97190e-04  6.0000e-01  1.1971e+00 -1.1987e+00
  1.97200e-04  6.0000e-01  1.1971e+00 -1.1987e+00
  1.97210e-04  6.0000e-01  1.1971e+00 -1.1987e+00
  1.97220e-04  6.0000e-01  1.1971e+00 -1.1987e+00
  1.97230e-04  6.0000e-01  1.1971e+00 -1.1987e+00
  1.97240e-04  6.0000e-01  1.1971e+00 -1.1987e+00
  1.97250e-04  6.0000e-01  1.1971e+00 -1.1987e+00
  1.97260e-04  6.0000e-01  1.1971e+00 -1.1987e+00
  1.97270e-04  6.0000e-01  1.1971e+00 -1.1987e+00
  1.97280e-04  6.0000e-01  1.1971e+00 -1.1987e+00
  1.97290e-04  6.0000e-01  1.1971e+00 -1.1987e+00
  1.97300e-04  6.0000e-01  1.1971e+00 -1.1987e+00
  1.97310e-04  6.0000e-01  1.1971e+00 -1.1987e+00
  1.97320e-04  6.0000e-01  1.1971e+00 -1.1987e+00
  1.97330e-04  6.0000e-01  1.1971e+00 -1.1987e+00
  1.97340e-04  6.0000e-01  1.1971e+00 -1.1987e+00
  1.97350e-04  6.0000e-01  1.1971e+00 -1.1987e+00
  1.97360e-04  6.0000e-01  1.1971e+00 -1.1987e+00
  1.97370e-04  6.0000e-01  1.1971e+00 -1.1987e+00
  1.97380e-04  6.0000e-01  1.1971e+00 -1.1987e+00
  1.97390e-04  6.0000e-01  1.1971e+00 -1.1987e+00
  1.97400e-04  6.0000e-01  1.1971e+00 -1.1987e+00
  1.97410e-04  6.0000e-01  1.1971e+00 -1.1987e+00
  1.97420e-04  6.0000e-01  1.1971e+00 -1.1987e+00
  1.97430e-04  6.0000e-01  1.1971e+00 -1.1987e+00
  1.97440e-04  6.0000e-01  1.1971e+00 -1.1987e+00
  1.97450e-04  6.0000e-01  1.1971e+00 -1.1987e+00
  1.97460e-04  6.0000e-01  1.1971e+00 -1.1987e+00
  1.97470e-04  6.0000e-01  1.1971e+00 -1.1987e+00
  1.97480e-04  6.0000e-01  1.1971e+00 -1.1987e+00
  1.97490e-04  6.0000e-01  1.1971e+00 -1.1987e+00
  1.97500e-04  6.0000e-01  1.1971e+00 -1.1987e+00
  1.97510e-04  6.0000e-01  1.1971e+00 -1.1987e+00
  1.97520e-04  6.0000e-01  1.1971e+00 -1.1987e+00
  1.97530e-04  6.0000e-01  1.1971e+00 -1.1987e+00
  1.97540e-04  6.0000e-01  1.1971e+00 -1.1987e+00
  1.97550e-04  6.0000e-01  1.1971e+00 -1.1987e+00
  1.97560e-04  6.0000e-01  1.1971e+00 -1.1987e+00
  1.97570e-04  6.0000e-01  1.1971e+00 -1.1987e+00
  1.97580e-04  6.0000e-01  1.1971e+00 -1.1987e+00
  1.97590e-04  6.0000e-01  1.1971e+00 -1.1987e+00
  1.97600e-04  6.0000e-01  1.1971e+00 -1.1987e+00
  1.97610e-04  6.0000e-01  1.1971e+00 -1.1987e+00
  1.97620e-04  6.0000e-01  1.1971e+00 -1.1987e+00
  1.97630e-04  6.0000e-01  1.1971e+00 -1.1987e+00
  1.97640e-04  6.0000e-01  1.1971e+00 -1.1987e+00
  1.97650e-04  6.0000e-01  1.1971e+00 -1.1987e+00
  1.97660e-04  6.0000e-01  1.1971e+00 -1.1987e+00
  1.97670e-04  6.0000e-01  1.1971e+00 -1.1987e+00
  1.97680e-04  6.0000e-01  1.1971e+00 -1.1987e+00
  1.97690e-04  6.0000e-01  1.1971e+00 -1.1987e+00
  1.97700e-04  6.0000e-01  1.1971e+00 -1.1987e+00
  1.97710e-04  6.0000e-01  1.1971e+00 -1.1987e+00
  1.97720e-04  6.0000e-01  1.1971e+00 -1.1987e+00
  1.97730e-04  6.0000e-01  1.1971e+00 -1.1987e+00
  1.97740e-04  6.0000e-01  1.1971e+00 -1.1987e+00
  1.97750e-04  6.0000e-01  1.1971e+00 -1.1987e+00
  1.97760e-04  6.0000e-01  1.1971e+00 -1.1987e+00
  1.97770e-04  6.0000e-01  1.1971e+00 -1.1987e+00
  1.97780e-04  6.0000e-01  1.1971e+00 -1.1987e+00
  1.97790e-04  6.0000e-01  1.1971e+00 -1.1987e+00
  1.97800e-04  6.0000e-01  1.1971e+00 -1.1987e+00
  1.97810e-04  6.0000e-01  1.1971e+00 -1.1987e+00
  1.97820e-04  6.0000e-01  1.1971e+00 -1.1987e+00
  1.97830e-04  6.0000e-01  1.1971e+00 -1.1987e+00
  1.97840e-04  6.0000e-01  1.1971e+00 -1.1987e+00
  1.97850e-04  6.0000e-01  1.1971e+00 -1.1987e+00
  1.97860e-04  6.0000e-01  1.1971e+00 -1.1987e+00
  1.97870e-04  6.0000e-01  1.1971e+00 -1.1987e+00
  1.97880e-04  6.0000e-01  1.1971e+00 -1.1987e+00
  1.97890e-04  6.0000e-01  1.1971e+00 -1.1987e+00
  1.97900e-04  6.0000e-01  1.1971e+00 -1.1987e+00
  1.97910e-04  6.0000e-01  1.1971e+00 -1.1987e+00
  1.97920e-04  6.0000e-01  1.1971e+00 -1.1987e+00
  1.97930e-04  6.0000e-01  1.1971e+00 -1.1987e+00
  1.97940e-04  6.0000e-01  1.1971e+00 -1.1987e+00
  1.97950e-04  6.0000e-01  1.1971e+00 -1.1987e+00
  1.97960e-04  6.0000e-01  1.1971e+00 -1.1987e+00
  1.97970e-04  6.0000e-01  1.1971e+00 -1.1987e+00
  1.97980e-04  6.0000e-01  1.1971e+00 -1.1987e+00
  1.97990e-04  6.0000e-01  1.1971e+00 -1.1987e+00
  1.98000e-04  6.0000e-01  1.1971e+00 -1.1987e+00
  1.98010e-04  6.0000e-01  1.1971e+00 -1.1987e+00
  1.98020e-04  6.0000e-01  1.1971e+00 -1.1987e+00
  1.98030e-04  6.0000e-01  1.1971e+00 -1.1987e+00
  1.98040e-04  6.0000e-01  1.1971e+00 -1.1987e+00
  1.98050e-04  6.0000e-01  1.1971e+00 -1.1987e+00
  1.98060e-04  6.0000e-01  1.1971e+00 -1.1987e+00
  1.98070e-04  6.0000e-01  1.1971e+00 -1.1987e+00
  1.98080e-04  6.0000e-01  1.1971e+00 -1.1987e+00
  1.98090e-04  6.0000e-01  1.1971e+00 -1.1987e+00
  1.98100e-04  6.0000e-01  1.1971e+00 -1.1987e+00
  1.98110e-04  6.0000e-01  1.1971e+00 -1.1987e+00
  1.98120e-04  6.0000e-01  1.1971e+00 -1.1987e+00
  1.98130e-04  6.0000e-01  1.1971e+00 -1.1987e+00
  1.98140e-04  6.0000e-01  1.1971e+00 -1.1987e+00
  1.98150e-04  6.0000e-01  1.1971e+00 -1.1987e+00
  1.98160e-04  6.0000e-01  1.1971e+00 -1.1987e+00
  1.98170e-04  6.0000e-01  1.1971e+00 -1.1987e+00
  1.98180e-04  6.0000e-01  1.1971e+00 -1.1987e+00
  1.98190e-04  6.0000e-01  1.1971e+00 -1.1987e+00
  1.98200e-04  6.0000e-01  1.1971e+00 -1.1987e+00
  1.98210e-04  6.0000e-01  1.1971e+00 -1.1987e+00
  1.98220e-04  6.0000e-01  1.1971e+00 -1.1987e+00
  1.98230e-04  6.0000e-01  1.1971e+00 -1.1987e+00
  1.98240e-04  6.0000e-01  1.1971e+00 -1.1987e+00
  1.98250e-04  6.0000e-01  1.1971e+00 -1.1987e+00
  1.98260e-04  6.0000e-01  1.1971e+00 -1.1987e+00
  1.98270e-04  6.0000e-01  1.1971e+00 -1.1987e+00
  1.98280e-04  6.0000e-01  1.1971e+00 -1.1987e+00
  1.98290e-04  6.0000e-01  1.1971e+00 -1.1987e+00
  1.98300e-04  6.0000e-01  1.1971e+00 -1.1987e+00
  1.98310e-04  6.0000e-01  1.1971e+00 -1.1987e+00
  1.98320e-04  6.0000e-01  1.1971e+00 -1.1987e+00
  1.98330e-04  6.0000e-01  1.1971e+00 -1.1987e+00
  1.98340e-04  6.0000e-01  1.1971e+00 -1.1987e+00
  1.98350e-04  6.0000e-01  1.1971e+00 -1.1987e+00
  1.98360e-04  6.0000e-01  1.1971e+00 -1.1987e+00
  1.98370e-04  6.0000e-01  1.1971e+00 -1.1987e+00
  1.98380e-04  6.0000e-01  1.1971e+00 -1.1987e+00
  1.98390e-04  6.0000e-01  1.1971e+00 -1.1987e+00
  1.98400e-04  6.0000e-01  1.1971e+00 -1.1987e+00
  1.98410e-04  6.0000e-01  1.1971e+00 -1.1987e+00
  1.98420e-04  6.0000e-01  1.1971e+00 -1.1987e+00
  1.98430e-04  6.0000e-01  1.1971e+00 -1.1987e+00
  1.98440e-04  6.0000e-01  1.1971e+00 -1.1987e+00
  1.98450e-04  6.0000e-01  1.1971e+00 -1.1987e+00
  1.98460e-04  6.0000e-01  1.1971e+00 -1.1987e+00
  1.98470e-04  6.0000e-01  1.1971e+00 -1.1987e+00
  1.98480e-04  6.0000e-01  1.1971e+00 -1.1987e+00
  1.98490e-04  6.0000e-01  1.1971e+00 -1.1987e+00
  1.98500e-04  6.0000e-01  1.1971e+00 -1.1987e+00
  1.98510e-04  6.0000e-01  1.1971e+00 -1.1987e+00
  1.98520e-04  6.0000e-01  1.1971e+00 -1.1987e+00
  1.98530e-04  6.0000e-01  1.1971e+00 -1.1987e+00
  1.98540e-04  6.0000e-01  1.1971e+00 -1.1987e+00
  1.98550e-04  6.0000e-01  1.1971e+00 -1.1987e+00
  1.98560e-04  6.0000e-01  1.1971e+00 -1.1987e+00
  1.98570e-04  6.0000e-01  1.1971e+00 -1.1987e+00
  1.98580e-04  6.0000e-01  1.1971e+00 -1.1987e+00
  1.98590e-04  6.0000e-01  1.1971e+00 -1.1987e+00
  1.98600e-04  6.0000e-01  1.1971e+00 -1.1987e+00
  1.98610e-04  6.0000e-01  1.1971e+00 -1.1987e+00
  1.98620e-04  6.0000e-01  1.1971e+00 -1.1987e+00
  1.98630e-04  6.0000e-01  1.1971e+00 -1.1987e+00
  1.98640e-04  6.0000e-01  1.1971e+00 -1.1987e+00
  1.98650e-04  6.0000e-01  1.1971e+00 -1.1987e+00
  1.98660e-04  6.0000e-01  1.1971e+00 -1.1987e+00
  1.98670e-04  6.0000e-01  1.1971e+00 -1.1987e+00
  1.98680e-04  6.0000e-01  1.1971e+00 -1.1987e+00
  1.98690e-04  6.0000e-01  1.1971e+00 -1.1987e+00
  1.98700e-04  6.0000e-01  1.1971e+00 -1.1987e+00
  1.98710e-04  6.0000e-01  1.1971e+00 -1.1987e+00
  1.98720e-04  6.0000e-01  1.1971e+00 -1.1987e+00
  1.98730e-04  6.0000e-01  1.1971e+00 -1.1987e+00
  1.98740e-04  6.0000e-01  1.1971e+00 -1.1987e+00
  1.98750e-04  6.0000e-01  1.1971e+00 -1.1987e+00
  1.98760e-04  6.0000e-01  1.1971e+00 -1.1987e+00
  1.98770e-04  6.0000e-01  1.1971e+00 -1.1987e+00
  1.98780e-04  6.0000e-01  1.1971e+00 -1.1987e+00
  1.98790e-04  6.0000e-01  1.1971e+00 -1.1987e+00
  1.98800e-04  6.0000e-01  1.1971e+00 -1.1987e+00
  1.98810e-04  6.0000e-01  1.1971e+00 -1.1987e+00
  1.98820e-04  6.0000e-01  1.1971e+00 -1.1987e+00
  1.98830e-04  6.0000e-01  1.1971e+00 -1.1987e+00
  1.98840e-04  6.0000e-01  1.1971e+00 -1.1987e+00
  1.98850e-04  6.0000e-01  1.1971e+00 -1.1987e+00
  1.98860e-04  6.0000e-01  1.1971e+00 -1.1987e+00
  1.98870e-04  6.0000e-01  1.1971e+00 -1.1987e+00
  1.98880e-04  6.0000e-01  1.1971e+00 -1.1987e+00
  1.98890e-04  6.0000e-01  1.1971e+00 -1.1987e+00
  1.98900e-04  6.0000e-01  1.1971e+00 -1.1987e+00
  1.98910e-04  6.0000e-01  1.1971e+00 -1.1987e+00
  1.98920e-04  6.0000e-01  1.1971e+00 -1.1987e+00
  1.98930e-04  6.0000e-01  1.1971e+00 -1.1987e+00
  1.98940e-04  6.0000e-01  1.1971e+00 -1.1987e+00
  1.98950e-04  6.0000e-01  1.1971e+00 -1.1987e+00
  1.98960e-04  6.0000e-01  1.1971e+00 -1.1987e+00
  1.98970e-04  6.0000e-01  1.1971e+00 -1.1987e+00
  1.98980e-04  6.0000e-01  1.1971e+00 -1.1987e+00
  1.98990e-04  6.0000e-01  1.1971e+00 -1.1987e+00
  1.99000e-04  6.0000e-01  1.1971e+00 -1.1987e+00
  1.99010e-04  6.0000e-01  1.1971e+00 -1.1987e+00
  1.99020e-04  6.0000e-01  1.1971e+00 -1.1987e+00
  1.99030e-04  6.0000e-01  1.1971e+00 -1.1987e+00
  1.99040e-04  6.0000e-01  1.1971e+00 -1.1987e+00
  1.99050e-04  6.0000e-01  1.1971e+00 -1.1987e+00
  1.99060e-04  6.0000e-01  1.1971e+00 -1.1987e+00
  1.99070e-04  6.0000e-01  1.1971e+00 -1.1987e+00
  1.99080e-04  6.0000e-01  1.1971e+00 -1.1987e+00
  1.99090e-04  6.0000e-01  1.1971e+00 -1.1987e+00
  1.99100e-04  6.0000e-01  1.1971e+00 -1.1987e+00
  1.99110e-04  6.0000e-01  1.1971e+00 -1.1987e+00
  1.99120e-04  6.0000e-01  1.1971e+00 -1.1987e+00
  1.99130e-04  6.0000e-01  1.1971e+00 -1.1987e+00
  1.99140e-04  6.0000e-01  1.1971e+00 -1.1987e+00
  1.99150e-04  6.0000e-01  1.1971e+00 -1.1987e+00
  1.99160e-04  6.0000e-01  1.1971e+00 -1.1987e+00
  1.99170e-04  6.0000e-01  1.1971e+00 -1.1987e+00
  1.99180e-04  6.0000e-01  1.1971e+00 -1.1987e+00
  1.99190e-04  6.0000e-01  1.1971e+00 -1.1987e+00
  1.99200e-04  6.0000e-01  1.1971e+00 -1.1987e+00
  1.99210e-04  6.0000e-01  1.1971e+00 -1.1987e+00
  1.99220e-04  6.0000e-01  1.1971e+00 -1.1987e+00
  1.99230e-04  6.0000e-01  1.1971e+00 -1.1987e+00
  1.99240e-04  6.0000e-01  1.1971e+00 -1.1987e+00
  1.99250e-04  6.0000e-01  1.1971e+00 -1.1987e+00
  1.99260e-04  6.0000e-01  1.1971e+00 -1.1987e+00
  1.99270e-04  6.0000e-01  1.1971e+00 -1.1987e+00
  1.99280e-04  6.0000e-01  1.1971e+00 -1.1987e+00
  1.99290e-04  6.0000e-01  1.1971e+00 -1.1987e+00
  1.99300e-04  6.0000e-01  1.1971e+00 -1.1987e+00
  1.99310e-04  6.0000e-01  1.1971e+00 -1.1987e+00
  1.99320e-04  6.0000e-01  1.1971e+00 -1.1987e+00
  1.99330e-04  6.0000e-01  1.1971e+00 -1.1987e+00
  1.99340e-04  6.0000e-01  1.1971e+00 -1.1987e+00
  1.99350e-04  6.0000e-01  1.1971e+00 -1.1987e+00
  1.99360e-04  6.0000e-01  1.1971e+00 -1.1987e+00
  1.99370e-04  6.0000e-01  1.1971e+00 -1.1987e+00
  1.99380e-04  6.0000e-01  1.1971e+00 -1.1987e+00
  1.99390e-04  6.0000e-01  1.1971e+00 -1.1987e+00
  1.99400e-04  6.0000e-01  1.1971e+00 -1.1987e+00
  1.99410e-04  6.0000e-01  1.1971e+00 -1.1987e+00
  1.99420e-04  6.0000e-01  1.1971e+00 -1.1987e+00
  1.99430e-04  6.0000e-01  1.1971e+00 -1.1987e+00
  1.99440e-04  6.0000e-01  1.1971e+00 -1.1987e+00
  1.99450e-04  6.0000e-01  1.1971e+00 -1.1987e+00
  1.99460e-04  6.0000e-01  1.1971e+00 -1.1987e+00
  1.99470e-04  6.0000e-01  1.1971e+00 -1.1987e+00
  1.99480e-04  6.0000e-01  1.1971e+00 -1.1987e+00
  1.99490e-04  6.0000e-01  1.1971e+00 -1.1987e+00
  1.99500e-04  6.0000e-01  1.1971e+00 -1.1987e+00
  1.99510e-04  6.0000e-01  1.1971e+00 -1.1987e+00
  1.99520e-04  6.0000e-01  1.1971e+00 -1.1987e+00
  1.99530e-04  6.0000e-01  1.1971e+00 -1.1987e+00
  1.99540e-04  6.0000e-01  1.1971e+00 -1.1987e+00
  1.99550e-04  6.0000e-01  1.1971e+00 -1.1987e+00
  1.99560e-04  6.0000e-01  1.1971e+00 -1.1987e+00
  1.99570e-04  6.0000e-01  1.1971e+00 -1.1987e+00
  1.99580e-04  6.0000e-01  1.1971e+00 -1.1987e+00
  1.99590e-04  6.0000e-01  1.1971e+00 -1.1987e+00
  1.99600e-04  6.0000e-01  1.1971e+00 -1.1987e+00
  1.99610e-04  6.0000e-01  1.1971e+00 -1.1987e+00
  1.99620e-04  6.0000e-01  1.1971e+00 -1.1987e+00
  1.99630e-04  6.0000e-01  1.1971e+00 -1.1987e+00
  1.99640e-04  6.0000e-01  1.1971e+00 -1.1987e+00
  1.99650e-04  6.0000e-01  1.1971e+00 -1.1987e+00
  1.99660e-04  6.0000e-01  1.1971e+00 -1.1987e+00
  1.99670e-04  6.0000e-01  1.1971e+00 -1.1987e+00
  1.99680e-04  6.0000e-01  1.1971e+00 -1.1987e+00
  1.99690e-04  6.0000e-01  1.1971e+00 -1.1987e+00
  1.99700e-04  6.0000e-01  1.1971e+00 -1.1987e+00
  1.99710e-04  6.0000e-01  1.1971e+00 -1.1987e+00
  1.99720e-04  6.0000e-01  1.1971e+00 -1.1987e+00
  1.99730e-04  6.0000e-01  1.1971e+00 -1.1987e+00
  1.99740e-04  6.0000e-01  1.1971e+00 -1.1987e+00
  1.99750e-04  6.0000e-01  1.1971e+00 -1.1987e+00
  1.99760e-04  6.0000e-01  1.1971e+00 -1.1987e+00
  1.99770e-04  6.0000e-01  1.1971e+00 -1.1987e+00
  1.99780e-04  6.0000e-01  1.1971e+00 -1.1987e+00
  1.99790e-04  6.0000e-01  1.1971e+00 -1.1987e+00
  1.99800e-04  6.0000e-01  1.1971e+00 -1.1987e+00
  1.99810e-04  6.0000e-01  1.1971e+00 -1.1987e+00
  1.99820e-04  6.0000e-01  1.1971e+00 -1.1987e+00
  1.99830e-04  6.0000e-01  1.1971e+00 -1.1987e+00
  1.99840e-04  6.0000e-01  1.1971e+00 -1.1987e+00
  1.99850e-04  6.0000e-01  1.1971e+00 -1.1987e+00
  1.99860e-04  6.0000e-01  1.1971e+00 -1.1987e+00
  1.99870e-04  6.0000e-01  1.1971e+00 -1.1987e+00
  1.99880e-04  6.0000e-01  1.1971e+00 -1.1987e+00
  1.99890e-04  6.0000e-01  1.1971e+00 -1.1987e+00
  1.99900e-04  6.0000e-01  1.1971e+00 -1.1987e+00
  1.99910e-04  6.0000e-01  1.1971e+00 -1.1987e+00
  1.99920e-04  6.0000e-01  1.1971e+00 -1.1987e+00
  1.99930e-04  6.0000e-01  1.1971e+00 -1.1987e+00
  1.99940e-04  6.0000e-01  1.1971e+00 -1.1987e+00
  1.99950e-04  6.0000e-01  1.1971e+00 -1.1987e+00
  1.99960e-04  6.0000e-01  1.1971e+00 -1.1987e+00
  1.99970e-04  6.0000e-01  1.1971e+00 -1.1987e+00
  1.99980e-04  6.0000e-01  1.1971e+00 -1.1987e+00
  1.99990e-04  6.0000e-01  1.1971e+00 -1.1987e+00
  2.00000e-04  6.0000e-01  1.1971e+00 -1.1987e+00
y
 vps=-1.1987e+00
 vpt= 1.1971e+00
 srr1= 3.2325e+07
 srr2= 6.0735e+07
 srr3= 2.1590e+07
 srr= 3.8217e+07
 vns= 1.1971e+00
 vnt=-1.1987e+00
 srf1=-2.8520e+07
 srf2=-3.1010e+07
 srf3=-2.3686e+07
 srf=-2.7738e+07
 sr= 2.7738e+07

          ***** job concluded
 ******
 .title testbench for hspice

 ****** job statistics summary tnom=  25.000 temp=  25.000 ******


 ******  Machine Information  ******
 CPU:
 model name	: Intel(R) Xeon(R) CPU E7- 4830  @ 2.13GHz
 cpu MHz	: 1064.000

 OS:
 Linux version 3.10.0-1160.15.2.el7.x86_64 (mockbuild@kbuilder.bsys.centos.org) (gcc version 4.8.5 20150623 (Red Hat 4.8.5-44) (GCC) ) #1 SMP Wed Feb 3 15:06:38 UTC 2021


  ******  HSPICE Threads Information  ******

  Command Line Threads Count :     1
  Available CPU Count        :    64
  Actual Threads Count       :     1


  ******  Circuit Statistics  ******
  # nodes       =      23 # elements   =      40
  # resistors   =       9 # capacitors =       3 # inductors   =       0
  # mutual_inds =       0 # vccs       =       0 # vcvs        =       1
  # cccs        =       0 # ccvs       =       0 # volt_srcs   =       3
  # curr_srcs   =       0 # diodes     =       0 # bjts        =       0
  # jfets       =       0 # mosfets    =      24 # U elements  =       0
  # T elements  =       0 # W elements =       0 # B elements  =       0
  # S elements  =       0 # P elements =       0 # va device   =       0
  # vector_srcs =       0 # N elements =       0


  ******  Runtime Statistics (seconds)  ******

  analysis           time    # points   tot. iter  conv.iter
  op point           0.03           1          92
  transient          0.04       20001         195          80 rev=         2
  readin             0.08
  errchk             0.01
  setup              0.00
  output             0.00


           peak memory used        294.68 megabytes
           total cpu time            0.54 seconds
           total elapsed time        0.90 seconds
           job started at     09:43:56 03/31/2021
           job ended   at     09:43:56 03/31/2021


 lic: Release hspice token(s) 
 lic: total license checkout elapse time:        0.58(s)
