 ****** HSPICE -- M-2017.03-SP2-2 linux64 (Oct 30 2017) ******                  
  Copyright (c) 1986 - 2021 by Synopsys, Inc. All Rights Reserved.              
  This software and the associated documentation are proprietary
  to Synopsys, Inc. This software may only be used in accordance
  with the terms and conditions of a written license agreement with
  Synopsys, Inc. All other use, reproduction, or distribution of
  this software is strictly prohibited.
  Input File: hspice1.sp                                                        
  Command line options: /home/cad/tools/synopsys/hspice/latest/hspice/linux64/hspice -i hspice1.sp -o hspice1.lis
 lic:  
 lic: FLEXlm: SDK_11.6.4 
 lic: USER:   ntak                 HOSTNAME: laplace.takai-lab.el.gunma-u.ac.jp 
 lic: HOSTID: "6cae8b772444"       PID:      31023 
 lic: Using FLEXlm license file: 
 lic: 1700@vdec-cad1 
 lic: Checkout 1 hspice 
 lic: License/Maintenance for hspice will expire on 31-mar-2021/2020.03 
 lic: 17(in_use)/180(total) FLOATING license(s) on SERVER 1700@vdec-cad1 
 lic:   
  **warning** (../Sp_Data/OPamp.sp:4) unknown command ".csparam" is ignored
1****** HSPICE -- M-2017.03-SP2-2 linux64 (Oct 30 2017) ******                  
 ******  
 .title testbench for hspice

 ****** circuit name directory
 circuit number to circuit name directory
   number circuitname                     definition         multiplier
        0 main circuit
        1 xcc.                            opamp              1.00 
 

 Warning: Pd = 0 is less than Weff = 3.78423e-06 in BSIM3 model 0:cmosn element m1 with W = 3.79e-06, L = 2e-06

  
      
 *****************************************************************
 ******  option summary
 ******
 runlvl  = 3         bypass  = 2.00000   
 ******
 .title testbench for hspice

 ****** dc transfer curves tnom=  25.000 temp= -40.000 ******
  *** parameter step =   1.3500e+00       ***
  
 ivdd=-2.3338e-04
 ivss=-2.3340e-04
 ib= 2.3340e-04
 pdis= 6.3017e-04
 ******
 .title testbench for hspice

 ****** dc transfer curves tnom=  25.000 temp= -40.000 ******
  *** parameter step =   1.5000e+00       ***
  
 ivdd=-2.6581e-04
 ivss=-2.6583e-04
 ib= 2.6583e-04
 pdis= 7.9750e-04
 ******
 .title testbench for hspice

 ****** dc transfer curves tnom=  25.000 temp= -40.000 ******
  *** parameter step =   1.6500e+00       ***
  
 ivdd=-2.9854e-04
 ivss=-2.9857e-04
 ib= 2.9857e-04
 pdis= 9.8527e-04
 ******
 .title testbench for hspice

 ****** dc transfer curves tnom=  25.000 temp=  25.000 ******
  *** parameter step =   1.3500e+00       ***
  
 ivdd=-2.3018e-04
 ivss=-2.3021e-04
 ib= 2.3021e-04
 pdis= 6.2155e-04
 ******
 .title testbench for hspice

 ****** dc transfer curves tnom=  25.000 temp=  25.000 ******
  *** parameter step =   1.5000e+00       ***
  
 ivdd=-2.6190e-04
 ivss=-2.6193e-04
 ib= 2.6193e-04
 pdis= 7.8580e-04
 ******
 .title testbench for hspice

 ****** dc transfer curves tnom=  25.000 temp=  25.000 ******
  *** parameter step =   1.6500e+00       ***
  
 ivdd=-2.9388e-04
 ivss=-2.9391e-04
 ib= 2.9391e-04
 pdis= 9.6991e-04
 ******
 .title testbench for hspice

 ****** dc transfer curves tnom=  25.000 temp=  80.000 ******
  *** parameter step =   1.3500e+00       ***
  
 ivdd=-2.2773e-04
 ivss=-2.2776e-04
 ib= 2.2776e-04
 pdis= 6.1494e-04
 ******
 .title testbench for hspice

 ****** dc transfer curves tnom=  25.000 temp=  80.000 ******
  *** parameter step =   1.5000e+00       ***
  
 ivdd=-2.5901e-04
 ivss=-2.5905e-04
 ib= 2.5905e-04
 pdis= 7.7714e-04
 ******
 .title testbench for hspice

 ****** dc transfer curves tnom=  25.000 temp=  80.000 ******
  *** parameter step =   1.6500e+00       ***
  
 ivdd=-2.9053e-04
 ivss=-2.9057e-04
 ib= 2.9057e-04
 pdis= 9.5887e-04

          ***** job concluded
 ******  
 .title testbench for hspice

 ****** job statistics summary tnom=  25.000 temp=  80.000 ******
  
  
 ******  Machine Information  ******
 CPU:
 model name	: Intel(R) Xeon(R) CPU E7- 4830  @ 2.13GHz
 cpu MHz	: 1064.000
  
 OS:
 Linux version 3.10.0-1160.15.2.el7.x86_64 (mockbuild@kbuilder.bsys.centos.org) (gcc version 4.8.5 20150623 (Red Hat 4.8.5-44) (GCC) ) #1 SMP Wed Feb 3 15:06:38 UTC 2021


  ******  HSPICE Threads Information  ******

  Command Line Threads Count :     1
  Available CPU Count        :    64
  Actual Threads Count       :     1


  ******  Circuit Statistics  ******
  # nodes       =      10 # elements   =      15
  # resistors   =       3 # capacitors =       1 # inductors   =       0
  # mutual_inds =       0 # vccs       =       0 # vcvs        =       0
  # cccs        =       0 # ccvs       =       0 # volt_srcs   =       3
  # curr_srcs   =       0 # diodes     =       0 # bjts        =       0
  # jfets       =       0 # mosfets    =       8 # U elements  =       0
  # T elements  =       0 # W elements =       0 # B elements  =       0
  # S elements  =       0 # P elements =       0 # va device   =       0
  # vector_srcs =       0 # N elements =       0


  ******  Runtime Statistics (seconds)  ******

  analysis           time    # points   tot. iter  conv.iter
  op point           0.00           1           0
  dc sweep           0.03           9         169
  readin             0.07
  errchk             0.01
  setup              0.00
  output             0.00


           peak memory used        295.49 megabytes
           total cpu time            0.12 seconds
           total elapsed time        0.78 seconds
           job started at     11:06:27 03/30/2021
           job ended   at     11:06:28 03/30/2021


 ******  
 $irn

 ****** circuit name directory
 circuit number to circuit name directory
   number circuitname                     definition         multiplier
        0 main circuit
        1 xirn.                           opamp              1.00 
  
      
 *****************************************************************
 ******  option summary
 ******
 runlvl  = 3         bypass  = 2.00000   
  *** pseudo tran succeeded *** 
 ******  
 $irn

 ****** operating point information tnom=  25.000 temp=  25.000 ******
 ****** operating point status is all       simulation time is   0.0000e+00
    node    =voltage       node    =voltage       node    =voltage

 +0:inm     =-2.7611e-04 0:inp     = 0.0000e+00 0:out     =-5.5223e-04
 +0:vdd     = 1.5000e+00 0:vss     =-1.5000e+00 1:n001    = 6.3885e-01
 +1:n002    = 5.9594e-01 1:n003    =-6.1765e-01 1:n005    =-9.8950e-01


 **** voltage sources

 subckt                                      
 element   0:vdd       0:vin       0:vss     
  volts    1.5000e+00  0.0000e+00  1.5000e+00
  current -2.6190e-04  0.0000e+00 -2.6193e-04
  power    3.9286e-04  0.0000e+00  3.9290e-04

     total voltage source power dissipation=  7.8576e-04      watts



 **** resistors

 subckt                           xirn       
 element   0:r1        0:r2        1:r1      
  r value  1.0000e+04  1.0000e+04  1.1500e+05
  v drop  -2.7611e-04 -2.7611e-04  2.4895e+00
  current -2.7611e-08 -2.7611e-08  2.1648e-05
  power    7.6239e-12  7.6239e-12  5.3892e-05



 **** mosfets


 subckt   xirn        xirn        xirn        xirn        xirn       
 element   1:m1        1:m2        1:m3        1:m4        1:m5      
 model     0:cmosn     0:cmosp     0:cmosn     0:cmosp     0:cmosn   
 region     Saturatio   Saturatio   Saturatio   Saturatio   Saturatio
  id       1.1018e-05 -1.1032e-05  1.1032e-05 -1.1018e-05  2.2050e-05
  ibs      0.0000e+00  0.0000e+00  0.0000e+00  0.0000e+00  0.0000e+00
  ibd      0.0000e+00  0.0000e+00  0.0000e+00  0.0000e+00  0.0000e+00
  vgs      6.1738e-01 -8.6115e-01  6.1765e-01 -8.6115e-01  5.1050e-01
  vds      1.2565e+00 -9.0406e-01  1.2135e+00 -8.6115e-01  8.8235e-01
  vbs      0.0000e+00  0.0000e+00  0.0000e+00  0.0000e+00  0.0000e+00
  vth      3.9551e-01 -3.9726e-01  3.9554e-01 -3.9730e-01  3.9642e-01
  vdsat    1.6873e-01 -3.5847e-01  1.6889e-01 -3.5843e-01  9.8505e-02
  vod      2.2187e-01 -4.6389e-01  2.2211e-01 -4.6384e-01  1.1407e-01
  beta     5.7353e-04  1.3051e-04  5.7354e-04  1.3051e-04  4.0723e-03
  gam eff  5.7629e-01  5.3051e-01  5.7629e-01  5.3051e-01  5.7677e-01
  gm       9.8343e-05  4.3637e-05  9.8390e-05  4.3595e-05  3.3486e-04
  gds      3.0834e-07  3.2019e-07  3.1078e-07  3.2673e-07  1.0171e-06
  gmb      2.7149e-05  1.4303e-05  2.7163e-05  1.4291e-05  9.4516e-05
  cdtot    3.2311e-15  2.9660e-15  3.2313e-15  2.9713e-15  2.3051e-14
  cgtot    5.8121e-14  5.6202e-14  5.8122e-14  5.6208e-14  4.0486e-13
  cstot    3.0657e-14  3.0293e-14  3.0658e-14  3.0296e-14  2.1140e-13
  cbtot    1.6237e-14  1.5374e-14  1.6236e-14  1.5375e-14  1.1788e-13
  cgs      5.1770e-14  5.1179e-14  5.1772e-14  5.1184e-14  3.5417e-13
  cgd      3.2050e-15  2.9382e-15  3.2053e-15  2.9443e-15  2.2870e-14



 subckt   xirn        xirn        xirn       
 element   1:m6        1:m7        1:m8      
 model     0:cmosp     0:cmosn     0:cmosn   
 region     Saturatio   Saturatio   Saturatio
  id      -2.1821e-04  2.1823e-04  2.1648e-05
  ibs      0.0000e+00  0.0000e+00  0.0000e+00
  ibd      0.0000e+00  0.0000e+00  0.0000e+00
  vgs     -9.0406e-01  5.1050e-01  5.1050e-01
  vds     -1.5005e+00  1.4994e+00  5.1050e-01
  vbs      0.0000e+00  0.0000e+00  0.0000e+00
  vth     -3.9662e-01  3.9598e-01  3.9675e-01
  vdsat   -3.9727e-01  9.8862e-02  9.8311e-02
  vod     -5.0745e-01  1.1452e-01  1.1375e-01
  beta     2.1045e-03  3.9236e-02  4.0724e-03
  gam eff  5.3077e-01  5.7684e-01  5.7677e-01
  gm       7.8189e-04  3.2872e-03  3.3031e-04
  gds      5.3002e-06  9.3541e-06  1.2040e-06
  gmb      2.6056e-04  9.2710e-04  9.3286e-05
  cdtot    4.8192e-14  2.2192e-13  2.3151e-14
  cgtot    9.1517e-13  3.9006e-12  4.0501e-13
  cstot    4.9597e-13  2.0371e-12  2.1152e-13
  cbtot    2.5073e-13  1.1358e-12  1.1795e-13
  cgs      8.3523e-13  3.4123e-12  3.5424e-13
  cgd      4.7706e-14  2.2016e-13  2.2979e-14



 ******  
 $irn

 ****** noise analysis tnom=  25.000 temp=  25.000 ******
 

====== Noise output port at: v(out)                          ======
 
     frequency = 1.0000e-01      hz

  
 Element Source Noise (V^2/Hz) Source Value (A^2/Hz) Source rx (Ohm) Integrated noise (V) 
 xirn.m3 TOT    8.754711e-06                                         0.                   
         rd     0.             0.                    0.              0.                   
         rs     0.             0.                    0.              0.                   
         id     5.697149e-16   1.38159e-24           2.030673e+04    0.                   
         fn     8.754711e-06   2.123058e-14          2.030673e+04    0.                   
 xirn.m1 TOT    8.752244e-06                                         0.                   
         rd     0.             0.                    0.              0.                   
         rs     0.             0.                    0.              0.                   
         id     5.699164e-16   1.3809e-24            2.031537e+04    0.                   
         fn     8.752244e-06   2.120655e-14          2.031537e+04    0.                   
 xirn.m2 TOT    2.907008e-07                                         0.                   
         rd     0.             0.                    0.              0.                   
         rs     0.             0.                    0.              0.                   
         id     2.674116e-16   6.39507e-25           2.044878e+04    0.                   
         fn     2.907008e-07   6.952025e-16          2.044878e+04    0.                   
 xirn.m4 TOT    2.825656e-07                                         0.                   
         rd     0.             0.                    0.              0.                   
         rs     0.             0.                    0.              0.                   
         id     2.600492e-16   6.39e-25              2.017331e+04    0.                   
         fn     2.825656e-07   6.943281e-16          2.017331e+04    0.                   
 xirn.m5 TOT    7.990132e-10                                         0.                   
         rd     0.             0.                    0.              0.                   
         rs     0.             0.                    0.              0.                   
         id     9.53346e-20    4.72432e-24           1.420546e+02    0.                   
         fn     7.990132e-10   3.959525e-14          1.420546e+02    0.                   
 xirn.m7 TOT    8.427388e-11                                         0.                   
         rd     0.             0.                    0.              0.                   
         rs     0.             0.                    0.              0.                   
         id     1.25389e-20    4.63627e-23           1.644543e+01    0.                   
         fn     8.427388e-11   3.116035e-13          1.644543e+01    0.                   
 xirn.m8 TOT    1.418040e-11                                         0.                   
         rd     0.             0.                    0.              0.                   
         rs     0.             0.                    0.              0.                   
         id     1.6979e-21     4.66302e-24           1.908190e+01    0.                   
         fn     1.418040e-11   3.894441e-14          1.908190e+01    0.                   
 xirn.m6 TOT    3.718896e-12                                         0.                   
         rd     0.             0.                    0.              0.                   
         rs     0.             0.                    0.              0.                   
         id     3.11047e-21    1.1501e-23            1.644543e+01    0.                   
         fn     3.718896e-12   1.375065e-14          1.644543e+01    0.                   
 xirn.r1 TOT    5.21333e-23                                          0.                   
         rs     5.21333e-23    1.43177e-25           1.908190e+01    0.                   
         1/f    0.             0.                    1.908190e+01    0.                   
 r1      TOT    0.                                                   0.                   
         rs     0.             0.                    9.981145e+03    0.                   
         1/f    0.             0.                    9.981145e+03    0.                   
 r2      TOT    0.                                                   0.                   
         rs     0.             0.                    9.997590e+03    0.                   
         1/f    0.             0.                    9.997590e+03    0.                   
 



 **** total output noise voltage         = 1.8081e-05      sq v/hz
                                         = 4.2522e-03      v/rt hz

       transfer function value:
        v(out)/vin                       = 1.9979e+00     
      equivalent input noise at vin                           
                                         = 2.1283e-03      /rt hz
 


 **** the results of the sqrt of integral (v**2 / freq)
      from fstart upto  1.0000e-01      hz. using more freq points 
      results in more accurate total noise values.     

 **** total output noise voltage   =  0.0000e+00      volts         

  **** total equivalent input noise =  0.0000e+00                    



 ******  
 $irn

 ****** noise analysis tnom=  25.000 temp=  25.000 ******
 

====== Noise output port at: v(out)                          ======
 
     frequency = 1.0233e-01      hz

  
 Element Source Noise (V^2/Hz) Source Value (A^2/Hz) Source rx (Ohm) Integrated noise (V) 
 xirn.m3 TOT    8.555430e-06                                         1.419868e-04         
         rd     0.             0.                    0.              0.                   
         rs     0.             0.                    0.              0.                   
         id     5.697149e-16   1.38159e-24           2.030673e+04    1.151971e-09         
         fn     8.555430e-06   2.074732e-14          2.030673e+04    1.419868e-04         
 xirn.m1 TOT    8.553018e-06                                         1.419668e-04         
         rd     0.             0.                    0.              0.                   
         rs     0.             0.                    0.              0.                   
         id     5.699164e-16   1.3809e-24            2.031537e+04    1.152174e-09         
         fn     8.553018e-06   2.072383e-14          2.031537e+04    1.419668e-04         
 xirn.m2 TOT    2.840836e-07                                         2.587320e-05         
         rd     0.             0.                    0.              0.                   
         rs     0.             0.                    0.              0.                   
         id     2.674116e-16   6.39507e-25           2.044878e+04    7.892285e-10         
         fn     2.840836e-07   6.793777e-16          2.044878e+04    2.587320e-05         
 xirn.m4 TOT    2.761336e-07                                         2.550860e-05         
         rd     0.             0.                    0.              0.                   
         rs     0.             0.                    0.              0.                   
         id     2.600492e-16   6.39e-25              2.017331e+04    7.782882e-10         
         fn     2.761336e-07   6.785232e-16          2.017331e+04    2.550860e-05         
 xirn.m5 TOT    7.808255e-10                                         1.356451e-06         
         rd     0.             0.                    0.              0.                   
         rs     0.             0.                    0.              0.                   
         id     9.53346e-20    4.72432e-24           1.420546e+02    1.490177e-11         
         fn     7.808255e-10   3.869395e-14          1.420546e+02    1.356451e-06         
 xirn.m7 TOT    8.235557e-11                                         4.405280e-07         
         rd     0.             0.                    0.              0.                   
         rs     0.             0.                    0.              0.                   
         id     1.25389e-20    4.63627e-23           1.644543e+01    5.404334e-12         
         fn     8.235557e-11   3.045105e-13          1.644543e+01    4.405280e-07         
 xirn.m8 TOT    1.385762e-11                                         1.807055e-07         
         rd     0.             0.                    0.              0.                   
         rs     0.             0.                    0.              0.                   
         id     1.6979e-21     4.66302e-24           1.908190e+01    1.988695e-12         
         fn     1.385762e-11   3.805793e-14          1.908190e+01    1.807055e-07         
 xirn.m6 TOT    3.634244e-12                                         9.254098e-08         
         rd     0.             0.                    0.              0.                   
         rs     0.             0.                    0.              0.                   
         id     3.11047e-21    1.1501e-23            1.644543e+01    2.691692e-12         
         fn     3.634244e-12   1.343765e-14          1.644543e+01    9.254098e-08         
 xirn.r1 TOT    5.21333e-23                                          3.484740e-13         
         rs     5.21333e-23    1.43177e-25           1.908190e+01    3.484740e-13         
         1/f    0.             0.                    1.908190e+01    0.                   
 r1      TOT    0.                                                   0.                   
         rs     0.             0.                    9.981145e+03    0.                   
         1/f    0.             0.                    9.981145e+03    0.                   
 r2      TOT    0.                                                   0.                   
         rs     0.             0.                    9.997590e+03    0.                   
         1/f    0.             0.                    9.997590e+03    0.                   
 



 **** total output noise voltage         = 1.7670e-05      sq v/hz
                                         = 4.2035e-03      v/rt hz

       transfer function value:
        v(out)/vin                       = 1.9979e+00     
      equivalent input noise at vin                           
                                         = 2.1039e-03      /rt hz
 


 **** the results of the sqrt of integral (v**2 / freq)
      from fstart upto  1.0233e-01      hz. using more freq points 
      results in more accurate total noise values.     

 **** total output noise voltage   =  2.0405e-04      volts         

  **** total equivalent input noise =  1.0213e-04                    



 ******  
 $irn

 ****** noise analysis tnom=  25.000 temp=  25.000 ******
 

====== Noise output port at: v(out)                          ======
 
     frequency = 1.0471e-01      hz

  
 Element Source Noise (V^2/Hz) Source Value (A^2/Hz) Source rx (Ohm) Integrated noise (V) 
 xirn.m3 TOT    8.360684e-06                                         2.007996e-04         
         rd     0.             0.                    0.              0.                   
         rs     0.             0.                    0.              0.                   
         id     5.697149e-16   1.38159e-24           2.030673e+04    1.638592e-09         
         fn     8.360684e-06   2.027505e-14          2.030673e+04    2.007996e-04         
 xirn.m1 TOT    8.358328e-06                                         2.007713e-04         
         rd     0.             0.                    0.              0.                   
         rs     0.             0.                    0.              0.                   
         id     5.699164e-16   1.3809e-24            2.031537e+04    1.638882e-09         
         fn     8.358328e-06   2.025210e-14          2.031537e+04    2.007713e-04         
 xirn.m2 TOT    2.776171e-07                                         3.659023e-05         
         rd     0.             0.                    0.              0.                   
         rs     0.             0.                    0.              0.                   
         id     2.674116e-16   6.39507e-25           2.044878e+04    1.122618e-09         
         fn     2.776171e-07   6.639132e-16          2.044878e+04    3.659023e-05         
 xirn.m4 TOT    2.698480e-07                                         3.607461e-05         
         rd     0.             0.                    0.              0.                   
         rs     0.             0.                    0.              0.                   
         id     2.600492e-16   6.39e-25              2.017331e+04    1.107057e-09         
         fn     2.698480e-07   6.630782e-16          2.017331e+04    3.607461e-05         
 xirn.m5 TOT    7.630517e-10                                         1.918311e-06         
         rd     0.             0.                    0.              0.                   
         rs     0.             0.                    0.              0.                   
         id     9.53346e-20    4.72432e-24           1.420546e+02    2.119665e-11         
         fn     7.630517e-10   3.781317e-14          1.420546e+02    1.918311e-06         
 xirn.m7 TOT    8.048093e-11                                         6.230007e-07         
         rd     0.             0.                    0.              0.                   
         rs     0.             0.                    0.              0.                   
         id     1.25389e-20    4.63627e-23           1.644543e+01    7.687261e-12         
         fn     8.048093e-11   2.975790e-13          1.644543e+01    6.230007e-07         
 xirn.m8 TOT    1.354218e-11                                         2.555561e-07         
         rd     0.             0.                    0.              0.                   
         rs     0.             0.                    0.              0.                   
         id     1.6979e-21     4.66302e-24           1.908190e+01    2.828770e-12         
         fn     1.354218e-11   3.719163e-14          1.908190e+01    2.555561e-07         
 xirn.m6 TOT    3.551518e-12                                         1.308727e-07         
         rd     0.             0.                    0.              0.                   
         rs     0.             0.                    0.              0.                   
         id     3.11047e-21    1.1501e-23            1.644543e+01    3.828730e-12         
         fn     3.551518e-12   1.313177e-14          1.644543e+01    1.308727e-07         
 xirn.r1 TOT    5.21333e-23                                          4.956781e-13         
         rs     5.21333e-23    1.43177e-25           1.908190e+01    4.956781e-13         
         1/f    0.             0.                    1.908190e+01    0.                   
 r1      TOT    0.                                                   0.                   
         rs     0.             0.                    9.981145e+03    0.                   
         1/f    0.             0.                    9.981145e+03    0.                   
 r2      TOT    0.                                                   0.                   
         rs     0.             0.                    9.997590e+03    0.                   
         1/f    0.             0.                    9.997590e+03    0.                   
 



 **** total output noise voltage         = 1.7267e-05      sq v/hz
                                         = 4.1554e-03      v/rt hz

       transfer function value:
        v(out)/vin                       = 1.9979e+00     
      equivalent input noise at vin                           
                                         = 2.0798e-03      /rt hz
 


 **** the results of the sqrt of integral (v**2 / freq)
      from fstart upto  1.0471e-01      hz. using more freq points 
      results in more accurate total noise values.     

 **** total output noise voltage   =  2.8857e-04      volts         

  **** total equivalent input noise =  1.4443e-04                    



 ******  
 $irn

 ****** noise analysis tnom=  25.000 temp=  25.000 ******
 

====== Noise output port at: v(out)                          ======
 
     frequency = 1.0715e-01      hz

  
 Element Source Noise (V^2/Hz) Source Value (A^2/Hz) Source rx (Ohm) Integrated noise (V) 
 xirn.m3 TOT    8.170372e-06                                         2.459283e-04         
         rd     0.             0.                    0.              0.                   
         rs     0.             0.                    0.              0.                   
         id     5.697149e-16   1.38159e-24           2.030673e+04    2.018554e-09         
         fn     8.170372e-06   1.981353e-14          2.030673e+04    2.459283e-04         
 xirn.m1 TOT    8.168069e-06                                         2.458937e-04         
         rd     0.             0.                    0.              0.                   
         rs     0.             0.                    0.              0.                   
         id     5.699164e-16   1.3809e-24            2.031537e+04    2.018911e-09         
         fn     8.168069e-06   1.979110e-14          2.031537e+04    2.458937e-04         
 xirn.m2 TOT    2.712978e-07                                         4.481370e-05         
         rd     0.             0.                    0.              0.                   
         rs     0.             0.                    0.              0.                   
         id     2.674116e-16   6.39507e-25           2.044878e+04    1.382935e-09         
         fn     2.712978e-07   6.488007e-16          2.044878e+04    4.481370e-05         
 xirn.m4 TOT    2.637055e-07                                         4.418219e-05         
         rd     0.             0.                    0.              0.                   
         rs     0.             0.                    0.              0.                   
         id     2.600492e-16   6.39e-25              2.017331e+04    1.363765e-09         
         fn     2.637055e-07   6.479847e-16          2.017331e+04    4.418219e-05         
 xirn.m5 TOT    7.456825e-10                                         2.349442e-06         
         rd     0.             0.                    0.              0.                   
         rs     0.             0.                    0.              0.                   
         id     9.53346e-20    4.72432e-24           1.420546e+02    2.611180e-11         
         fn     7.456825e-10   3.695244e-14          1.420546e+02    2.349442e-06         
 xirn.m7 TOT    7.864896e-11                                         7.630169e-07         
         rd     0.             0.                    0.              0.                   
         rs     0.             0.                    0.              0.                   
         id     1.25389e-20    4.63627e-23           1.644543e+01    9.469809e-12         
         fn     7.864896e-11   2.908053e-13          1.644543e+01    7.630169e-07         
 xirn.m8 TOT    1.323392e-11                                         3.129911e-07         
         rd     0.             0.                    0.              0.                   
         rs     0.             0.                    0.              0.                   
         id     1.6979e-21     4.66302e-24           1.908190e+01    3.484715e-12         
         fn     1.323392e-11   3.634504e-14          1.908190e+01    3.129911e-07         
 xirn.m6 TOT    3.470676e-12                                         1.602857e-07         
         rd     0.             0.                    0.              0.                   
         rs     0.             0.                    0.              0.                   
         id     3.11047e-21    1.1501e-23            1.644543e+01    4.716549e-12         
         fn     3.470676e-12   1.283286e-14          1.644543e+01    1.602857e-07         
 xirn.r1 TOT    5.21333e-23                                          6.106176e-13         
         rs     5.21333e-23    1.43177e-25           1.908190e+01    6.106176e-13         
         1/f    0.             0.                    1.908190e+01    0.                   
 r1      TOT    0.                                                   0.                   
         rs     0.             0.                    9.981145e+03    0.                   
         1/f    0.             0.                    9.981145e+03    0.                   
 r2      TOT    0.                                                   0.                   
         rs     0.             0.                    9.997590e+03    0.                   
         1/f    0.             0.                    9.997590e+03    0.                   
 



 **** total output noise voltage         = 1.6874e-05      sq v/hz
                                         = 4.1078e-03      v/rt hz

       transfer function value:
        v(out)/vin                       = 1.9979e+00     
      equivalent input noise at vin                           
                                         = 2.0560e-03      /rt hz
 


 **** the results of the sqrt of integral (v**2 / freq)
      from fstart upto  1.0715e-01      hz. using more freq points 
      results in more accurate total noise values.     

 **** total output noise voltage   =  3.5343e-04      volts         

  **** total equivalent input noise =  1.7689e-04                    



 ******  
 $irn

 ****** noise analysis tnom=  25.000 temp=  25.000 ******
 

====== Noise output port at: v(out)                          ======
 
     frequency = 1.0965e-01      hz

  
 Element Source Noise (V^2/Hz) Source Value (A^2/Hz) Source rx (Ohm) Integrated noise (V) 
 xirn.m3 TOT    7.984392e-06                                         2.839736e-04         
         rd     0.             0.                    0.              0.                   
         rs     0.             0.                    0.              0.                   
         id     5.697149e-16   1.38159e-24           2.030673e+04    2.344463e-09         
         fn     7.984392e-06   1.936252e-14          2.030673e+04    2.839736e-04         
 xirn.m1 TOT    7.982141e-06                                         2.839336e-04         
         rd     0.             0.                    0.              0.                   
         rs     0.             0.                    0.              0.                   
         id     5.699164e-16   1.3809e-24            2.031537e+04    2.344878e-09         
         fn     7.982141e-06   1.934060e-14          2.031537e+04    2.839336e-04         
 xirn.m2 TOT    2.651223e-07                                         5.174640e-05         
         rd     0.             0.                    0.              0.                   
         rs     0.             0.                    0.              0.                   
         id     2.674116e-16   6.39507e-25           2.044878e+04    1.606219e-09         
         fn     2.651223e-07   6.340322e-16          2.044878e+04    5.174640e-05         
 xirn.m4 TOT    2.577028e-07                                         5.101720e-05         
         rd     0.             0.                    0.              0.                   
         rs     0.             0.                    0.              0.                   
         id     2.600492e-16   6.39e-25              2.017331e+04    1.583953e-09         
         fn     2.577028e-07   6.332347e-16          2.017331e+04    5.101720e-05         
 xirn.m5 TOT    7.287087e-10                                         2.712901e-06         
         rd     0.             0.                    0.              0.                   
         rs     0.             0.                    0.              0.                   
         id     9.53346e-20    4.72432e-24           1.420546e+02    3.032772e-11         
         fn     7.287087e-10   3.611130e-14          1.420546e+02    2.712901e-06         
 xirn.m7 TOT    7.685869e-11                                         8.810560e-07         
         rd     0.             0.                    0.              0.                   
         rs     0.             0.                    0.              0.                   
         id     1.25389e-20    4.63627e-23           1.644543e+01    1.099877e-11         
         fn     7.685869e-11   2.841857e-13          1.644543e+01    8.810560e-07         
 xirn.m8 TOT    1.293268e-11                                         3.614110e-07         
         rd     0.             0.                    0.              0.                   
         rs     0.             0.                    0.              0.                   
         id     1.6979e-21     4.66302e-24           1.908190e+01    4.047344e-12         
         fn     1.293268e-11   3.551773e-14          1.908190e+01    3.614110e-07         
 xirn.m6 TOT    3.391674e-12                                         1.850820e-07         
         rd     0.             0.                    0.              0.                   
         rs     0.             0.                    0.              0.                   
         id     3.11047e-21    1.1501e-23            1.644543e+01    5.478067e-12         
         fn     3.391674e-12   1.254075e-14          1.644543e+01    1.850820e-07         
 xirn.r1 TOT    5.21333e-23                                          7.092058e-13         
         rs     5.21333e-23    1.43177e-25           1.908190e+01    7.092058e-13         
         1/f    0.             0.                    1.908190e+01    0.                   
 r1      TOT    0.                                                   0.                   
         rs     0.             0.                    9.981145e+03    0.                   
         1/f    0.             0.                    9.981145e+03    0.                   
 r2      TOT    0.                                                   0.                   
         rs     0.             0.                    9.997590e+03    0.                   
         1/f    0.             0.                    9.997590e+03    0.                   
 



 **** total output noise voltage         = 1.6490e-05      sq v/hz
                                         = 4.0608e-03      v/rt hz

       transfer function value:
        v(out)/vin                       = 1.9979e+00     
      equivalent input noise at vin                           
                                         = 2.0325e-03      /rt hz
 


 **** the results of the sqrt of integral (v**2 / freq)
      from fstart upto  1.0965e-01      hz. using more freq points 
      results in more accurate total noise values.     

 **** total output noise voltage   =  4.0810e-04      volts         

  **** total equivalent input noise =  2.0426e-04                    



 ******  
 $irn

 ****** noise analysis tnom=  25.000 temp=  25.000 ******
 

====== Noise output port at: v(out)                          ======
 
     frequency = 1.1220e-01      hz

  
 Element Source Noise (V^2/Hz) Source Value (A^2/Hz) Source rx (Ohm) Integrated noise (V) 
 xirn.m3 TOT    7.802645e-06                                         3.174921e-04         
         rd     0.             0.                    0.              0.                   
         rs     0.             0.                    0.              0.                   
         id     5.697149e-16   1.38159e-24           2.030673e+04    2.636584e-09         
         fn     7.802645e-06   1.892178e-14          2.030673e+04    3.174921e-04         
 xirn.m1 TOT    7.800446e-06                                         3.174474e-04         
         rd     0.             0.                    0.              0.                   
         rs     0.             0.                    0.              0.                   
         id     5.699164e-16   1.3809e-24            2.031537e+04    2.637050e-09         
         fn     7.800446e-06   1.890036e-14          2.031537e+04    3.174474e-04         
 xirn.m2 TOT    2.590874e-07                                         5.785423e-05         
         rd     0.             0.                    0.              0.                   
         rs     0.             0.                    0.              0.                   
         id     2.674116e-16   6.39507e-25           2.044878e+04    1.806354e-09         
         fn     2.590874e-07   6.195999e-16          2.044878e+04    5.785423e-05         
 xirn.m4 TOT    2.518368e-07                                         5.703897e-05         
         rd     0.             0.                    0.              0.                   
         rs     0.             0.                    0.              0.                   
         id     2.600492e-16   6.39e-25              2.017331e+04    1.781314e-09         
         fn     2.518368e-07   6.188205e-16          2.017331e+04    5.703897e-05         
 xirn.m5 TOT    7.121213e-10                                         3.033116e-06         
         rd     0.             0.                    0.              0.                   
         rs     0.             0.                    0.              0.                   
         id     9.53346e-20    4.72432e-24           1.420546e+02    3.410657e-11         
         fn     7.121213e-10   3.528930e-14          1.420546e+02    3.033116e-06         
 xirn.m7 TOT    7.510917e-11                                         9.850506e-07         
         rd     0.             0.                    0.              0.                   
         rs     0.             0.                    0.              0.                   
         id     1.25389e-20    4.63627e-23           1.644543e+01    1.236922e-11         
         fn     7.510917e-11   2.777169e-13          1.644543e+01    9.850506e-07         
 xirn.m8 TOT    1.263830e-11                                         4.040697e-07         
         rd     0.             0.                    0.              0.                   
         rs     0.             0.                    0.              0.                   
         id     1.6979e-21     4.66302e-24           1.908190e+01    4.551644e-12         
         fn     1.263830e-11   3.470924e-14          1.908190e+01    4.040697e-07         
 xirn.m6 TOT    3.314470e-12                                         2.069279e-07         
         rd     0.             0.                    0.              0.                   
         rs     0.             0.                    0.              0.                   
         id     3.11047e-21    1.1501e-23            1.644543e+01    6.160635e-12         
         fn     3.314470e-12   1.225528e-14          1.644543e+01    2.069279e-07         
 xirn.r1 TOT    5.21333e-23                                          7.975730e-13         
         rs     5.21333e-23    1.43177e-25           1.908190e+01    7.975730e-13         
         1/f    0.             0.                    1.908190e+01    0.                   
 r1      TOT    0.                                                   0.                   
         rs     0.             0.                    9.981145e+03    0.                   
         1/f    0.             0.                    9.981145e+03    0.                   
 r2      TOT    0.                                                   0.                   
         rs     0.             0.                    9.997590e+03    0.                   
         1/f    0.             0.                    9.997590e+03    0.                   
 



 **** total output noise voltage         = 1.6115e-05      sq v/hz
                                         = 4.0143e-03      v/rt hz

       transfer function value:
        v(out)/vin                       = 1.9979e+00     
      equivalent input noise at vin                           
                                         = 2.0092e-03      /rt hz
 


 **** the results of the sqrt of integral (v**2 / freq)
      from fstart upto  1.1220e-01      hz. using more freq points 
      results in more accurate total noise values.     

 **** total output noise voltage   =  4.5627e-04      volts         

  **** total equivalent input noise =  2.2837e-04                    



 ******  
 $irn

 ****** noise analysis tnom=  25.000 temp=  25.000 ******
 

====== Noise output port at: v(out)                          ======
 
     frequency = 1.1482e-01      hz

  
 Element Source Noise (V^2/Hz) Source Value (A^2/Hz) Source rx (Ohm) Integrated noise (V) 
 xirn.m3 TOT    7.625035e-06                                         3.477952e-04         
         rd     0.             0.                    0.              0.                   
         rs     0.             0.                    0.              0.                   
         id     5.697149e-16   1.38159e-24           2.030673e+04    2.905259e-09         
         fn     7.625035e-06   1.849107e-14          2.030673e+04    3.477952e-04         
 xirn.m1 TOT    7.622886e-06                                         3.477462e-04         
         rd     0.             0.                    0.              0.                   
         rs     0.             0.                    0.              0.                   
         id     5.699164e-16   1.3809e-24            2.031537e+04    2.905773e-09         
         fn     7.622886e-06   1.847013e-14          2.031537e+04    3.477462e-04         
 xirn.m2 TOT    2.531898e-07                                         6.337614e-05         
         rd     0.             0.                    0.              0.                   
         rs     0.             0.                    0.              0.                   
         id     2.674116e-16   6.39507e-25           2.044878e+04    1.990427e-09         
         fn     2.531898e-07   6.054960e-16          2.044878e+04    6.337614e-05         
 xirn.m4 TOT    2.461043e-07                                         6.248306e-05         
         rd     0.             0.                    0.              0.                   
         rs     0.             0.                    0.              0.                   
         id     2.600492e-16   6.39e-25              2.017331e+04    1.962836e-09         
         fn     2.461043e-07   6.047345e-16          2.017331e+04    6.248306e-05         
 xirn.m5 TOT    6.959114e-10                                         3.322612e-06         
         rd     0.             0.                    0.              0.                   
         rs     0.             0.                    0.              0.                   
         id     9.53346e-20    4.72432e-24           1.420546e+02    3.758213e-11         
         fn     6.959114e-10   3.448602e-14          1.420546e+02    3.322612e-06         
 xirn.m7 TOT    7.339948e-11                                         1.079069e-06         
         rd     0.             0.                    0.              0.                   
         rs     0.             0.                    0.              0.                   
         id     1.25389e-20    4.63627e-23           1.644543e+01    1.362968e-11         
         fn     7.339948e-11   2.713953e-13          1.644543e+01    1.079069e-06         
 xirn.m8 TOT    1.235062e-11                                         4.426362e-07         
         rd     0.             0.                    0.              0.                   
         rs     0.             0.                    0.              0.                   
         id     1.6979e-21     4.66302e-24           1.908190e+01    5.015471e-12         
         fn     1.235062e-11   3.391917e-14          1.908190e+01    4.426362e-07         
 xirn.m6 TOT    3.239023e-12                                         2.266782e-07         
         rd     0.             0.                    0.              0.                   
         rs     0.             0.                    0.              0.                   
         id     3.11047e-21    1.1501e-23            1.644543e+01    6.788423e-12         
         fn     3.239023e-12   1.197632e-14          1.644543e+01    2.266782e-07         
 xirn.r1 TOT    5.21333e-23                                          8.788481e-13         
         rs     5.21333e-23    1.43177e-25           1.908190e+01    8.788481e-13         
         1/f    0.             0.                    1.908190e+01    0.                   
 r1      TOT    0.                                                   0.                   
         rs     0.             0.                    9.981145e+03    0.                   
         1/f    0.             0.                    9.981145e+03    0.                   
 r2      TOT    0.                                                   0.                   
         rs     0.             0.                    9.997590e+03    0.                   
         1/f    0.             0.                    9.997590e+03    0.                   
 



 **** total output noise voltage         = 1.5748e-05      sq v/hz
                                         = 3.9684e-03      v/rt hz

       transfer function value:
        v(out)/vin                       = 1.9979e+00     
      equivalent input noise at vin                           
                                         = 1.9862e-03      /rt hz
 


 **** the results of the sqrt of integral (v**2 / freq)
      from fstart upto  1.1482e-01      hz. using more freq points 
      results in more accurate total noise values.     

 **** total output noise voltage   =  4.9982e-04      volts         

  **** total equivalent input noise =  2.5016e-04                    



 ******  
 $irn

 ****** noise analysis tnom=  25.000 temp=  25.000 ******
 

====== Noise output port at: v(out)                          ======
 
     frequency = 1.1749e-01      hz

  
 Element Source Noise (V^2/Hz) Source Value (A^2/Hz) Source rx (Ohm) Integrated noise (V) 
 xirn.m3 TOT    7.451468e-06                                         3.756617e-04         
         rd     0.             0.                    0.              0.                   
         rs     0.             0.                    0.              0.                   
         id     5.697149e-16   1.38159e-24           2.030673e+04    3.156608e-09         
         fn     7.451468e-06   1.807016e-14          2.030673e+04    3.756617e-04         
 xirn.m1 TOT    7.449368e-06                                         3.756088e-04         
         rd     0.             0.                    0.              0.                   
         rs     0.             0.                    0.              0.                   
         id     5.699164e-16   1.3809e-24            2.031537e+04    3.157166e-09         
         fn     7.449368e-06   1.804970e-14          2.031537e+04    3.756088e-04         
 xirn.m2 TOT    2.474265e-07                                         6.845405e-05         
         rd     0.             0.                    0.              0.                   
         rs     0.             0.                    0.              0.                   
         id     2.674116e-16   6.39507e-25           2.044878e+04    2.162629e-09         
         fn     2.474265e-07   5.917133e-16          2.044878e+04    6.845405e-05         
 xirn.m4 TOT    2.405023e-07                                         6.748941e-05         
         rd     0.             0.                    0.              0.                   
         rs     0.             0.                    0.              0.                   
         id     2.600492e-16   6.39e-25              2.017331e+04    2.132650e-09         
         fn     2.405023e-07   5.909690e-16          2.017331e+04    6.748941e-05         
 xirn.m5 TOT    6.800705e-10                                         3.588831e-06         
         rd     0.             0.                    0.              0.                   
         rs     0.             0.                    0.              0.                   
         id     9.53346e-20    4.72432e-24           1.420546e+02    4.083355e-11         
         fn     6.800705e-10   3.370102e-14          1.420546e+02    3.588831e-06         
 xirn.m7 TOT    7.172870e-11                                         1.165528e-06         
         rd     0.             0.                    0.              0.                   
         rs     0.             0.                    0.              0.                   
         id     1.25389e-20    4.63627e-23           1.644543e+01    1.480885e-11         
         fn     7.172870e-11   2.652176e-13          1.644543e+01    1.165528e-06         
 xirn.m8 TOT    1.206948e-11                                         4.781018e-07         
         rd     0.             0.                    0.              0.                   
         rs     0.             0.                    0.              0.                   
         id     1.6979e-21     4.66302e-24           1.908190e+01    5.449384e-12         
         fn     1.206948e-11   3.314707e-14          1.908190e+01    4.781018e-07         
 xirn.m6 TOT    3.165294e-12                                         2.448404e-07         
         rd     0.             0.                    0.              0.                   
         rs     0.             0.                    0.              0.                   
         id     3.11047e-21    1.1501e-23            1.644543e+01    7.375723e-12         
         fn     3.165294e-12   1.170371e-14          1.644543e+01    2.448404e-07         
 xirn.r1 TOT    5.21333e-23                                          9.548817e-13         
         rs     5.21333e-23    1.43177e-25           1.908190e+01    9.548817e-13         
         1/f    0.             0.                    1.908190e+01    0.                   
 r1      TOT    0.                                                   0.                   
         rs     0.             0.                    9.981145e+03    0.                   
         1/f    0.             0.                    9.981145e+03    0.                   
 r2      TOT    0.                                                   0.                   
         rs     0.             0.                    9.997590e+03    0.                   
         1/f    0.             0.                    9.997590e+03    0.                   
 



 **** total output noise voltage         = 1.5390e-05      sq v/hz
                                         = 3.9229e-03      v/rt hz

       transfer function value:
        v(out)/vin                       = 1.9979e+00     
      equivalent input noise at vin                           
                                         = 1.9635e-03      /rt hz
 


 **** the results of the sqrt of integral (v**2 / freq)
      from fstart upto  1.1749e-01      hz. using more freq points 
      results in more accurate total noise values.     

 **** total output noise voltage   =  5.3987e-04      volts         

  **** total equivalent input noise =  2.7021e-04                    



 ******  
 $irn

 ****** noise analysis tnom=  25.000 temp=  25.000 ******
 

====== Noise output port at: v(out)                          ======
 
     frequency = 1.2023e-01      hz

  
 Element Source Noise (V^2/Hz) Source Value (A^2/Hz) Source rx (Ohm) Integrated noise (V) 
 xirn.m3 TOT    7.281852e-06                                         4.015993e-04         
         rd     0.             0.                    0.              0.                   
         rs     0.             0.                    0.              0.                   
         id     5.697149e-16   1.38159e-24           2.030673e+04    3.394600e-09         
         fn     7.281852e-06   1.765883e-14          2.030673e+04    4.015993e-04         
 xirn.m1 TOT    7.279799e-06                                         4.015427e-04         
         rd     0.             0.                    0.              0.                   
         rs     0.             0.                    0.              0.                   
         id     5.699164e-16   1.3809e-24            2.031537e+04    3.395200e-09         
         fn     7.279799e-06   1.763884e-14          2.031537e+04    4.015427e-04         
 xirn.m2 TOT    2.417944e-07                                         7.318046e-05         
         rd     0.             0.                    0.              0.                   
         rs     0.             0.                    0.              0.                   
         id     2.674116e-16   6.39507e-25           2.044878e+04    2.325680e-09         
         fn     2.417944e-07   5.782442e-16          2.044878e+04    7.318046e-05         
 xirn.m4 TOT    2.350278e-07                                         7.214922e-05         
         rd     0.             0.                    0.              0.                   
         rs     0.             0.                    0.              0.                   
         id     2.600492e-16   6.39e-25              2.017331e+04    2.293441e-09         
         fn     2.350278e-07   5.775169e-16          2.017331e+04    7.214922e-05         
 xirn.m5 TOT    6.645902e-10                                         3.836622e-06         
         rd     0.             0.                    0.              0.                   
         rs     0.             0.                    0.              0.                   
         id     9.53346e-20    4.72432e-24           1.420546e+02    4.391218e-11         
         fn     6.645902e-10   3.293389e-14          1.420546e+02    3.836622e-06         
 xirn.m7 TOT    7.009596e-11                                         1.246001e-06         
         rd     0.             0.                    0.              0.                   
         rs     0.             0.                    0.              0.                   
         id     1.25389e-20    4.63627e-23           1.644543e+01    1.592536e-11         
         fn     7.009596e-11   2.591805e-13          1.644543e+01    1.246001e-06         
 xirn.m8 TOT    1.179475e-11                                         5.111123e-07         
         rd     0.             0.                    0.              0.                   
         rs     0.             0.                    0.              0.                   
         id     1.6979e-21     4.66302e-24           1.908190e+01    5.860239e-12         
         fn     1.179475e-11   3.239255e-14          1.908190e+01    5.111123e-07         
 xirn.m6 TOT    3.093243e-12                                         2.617454e-07         
         rd     0.             0.                    0.              0.                   
         rs     0.             0.                    0.              0.                   
         id     3.11047e-21    1.1501e-23            1.644543e+01    7.931814e-12         
         fn     3.093243e-12   1.143730e-14          1.644543e+01    2.617454e-07         
 xirn.r1 TOT    5.21333e-23                                          1.026875e-12         
         rs     5.21333e-23    1.43177e-25           1.908190e+01    1.026875e-12         
         1/f    0.             0.                    1.908190e+01    0.                   
 r1      TOT    0.                                                   0.                   
         rs     0.             0.                    9.981145e+03    0.                   
         1/f    0.             0.                    9.981145e+03    0.                   
 r2      TOT    0.                                                   0.                   
         rs     0.             0.                    9.997590e+03    0.                   
         1/f    0.             0.                    9.997590e+03    0.                   
 



 **** total output noise voltage         = 1.5039e-05      sq v/hz
                                         = 3.8780e-03      v/rt hz

       transfer function value:
        v(out)/vin                       = 1.9979e+00     
      equivalent input noise at vin                           
                                         = 1.9410e-03      /rt hz
 


 **** the results of the sqrt of integral (v**2 / freq)
      from fstart upto  1.2023e-01      hz. using more freq points 
      results in more accurate total noise values.     

 **** total output noise voltage   =  5.7714e-04      volts         

  **** total equivalent input noise =  2.8887e-04                    



 ******  
 $irn

 ****** noise analysis tnom=  25.000 temp=  25.000 ******
 

====== Noise output port at: v(out)                          ======
 
     frequency = 1.2303e-01      hz

  
 Element Source Noise (V^2/Hz) Source Value (A^2/Hz) Source rx (Ohm) Integrated noise (V) 
 xirn.m3 TOT    7.116096e-06                                         4.259604e-04         
         rd     0.             0.                    0.              0.                   
         rs     0.             0.                    0.              0.                   
         id     5.697149e-16   1.38159e-24           2.030673e+04    3.621982e-09         
         fn     7.116096e-06   1.725687e-14          2.030673e+04    4.259604e-04         
 xirn.m1 TOT    7.114091e-06                                         4.259003e-04         
         rd     0.             0.                    0.              0.                   
         rs     0.             0.                    0.              0.                   
         id     5.699164e-16   1.3809e-24            2.031537e+04    3.622623e-09         
         fn     7.114091e-06   1.723733e-14          2.031537e+04    4.259003e-04         
 xirn.m2 TOT    2.362905e-07                                         7.761960e-05         
         rd     0.             0.                    0.              0.                   
         rs     0.             0.                    0.              0.                   
         id     2.674116e-16   6.39507e-25           2.044878e+04    2.481462e-09         
         fn     2.362905e-07   5.650818e-16          2.044878e+04    7.761960e-05         
 xirn.m4 TOT    2.296779e-07                                         7.652580e-05         
         rd     0.             0.                    0.              0.                   
         rs     0.             0.                    0.              0.                   
         id     2.600492e-16   6.39e-25              2.017331e+04    2.447064e-09         
         fn     2.296779e-07   5.643710e-16          2.017331e+04    7.652580e-05         
 xirn.m5 TOT    6.494623e-10                                         4.069352e-06         
         rd     0.             0.                    0.              0.                   
         rs     0.             0.                    0.              0.                   
         id     9.53346e-20    4.72432e-24           1.420546e+02    4.685358e-11         
         fn     6.494623e-10   3.218423e-14          1.420546e+02    4.069352e-06         
 xirn.m7 TOT    6.850038e-11                                         1.321584e-06         
         rd     0.             0.                    0.              0.                   
         rs     0.             0.                    0.              0.                   
         id     1.25389e-20    4.63627e-23           1.644543e+01    1.699210e-11         
         fn     6.850038e-11   2.532808e-13          1.644543e+01    1.321584e-06         
 xirn.m8 TOT    1.152626e-11                                         5.421164e-07         
         rd     0.             0.                    0.              0.                   
         rs     0.             0.                    0.              0.                   
         id     1.6979e-21     4.66302e-24           1.908190e+01    6.252779e-12         
         fn     1.152626e-11   3.165521e-14          1.908190e+01    5.421164e-07         
 xirn.m6 TOT    3.022832e-12                                         2.776229e-07         
         rd     0.             0.                    0.              0.                   
         rs     0.             0.                    0.              0.                   
         id     3.11047e-21    1.1501e-23            1.644543e+01    8.463116e-12         
         fn     3.022832e-12   1.117695e-14          1.644543e+01    2.776229e-07         
 xirn.r1 TOT    5.21333e-23                                          1.095658e-12         
         rs     5.21333e-23    1.43177e-25           1.908190e+01    1.095658e-12         
         1/f    0.             0.                    1.908190e+01    0.                   
 r1      TOT    0.                                                   0.                   
         rs     0.             0.                    9.981145e+03    0.                   
         1/f    0.             0.                    9.981145e+03    0.                   
 r2      TOT    0.                                                   0.                   
         rs     0.             0.                    9.997590e+03    0.                   
         1/f    0.             0.                    9.997590e+03    0.                   
 



 **** total output noise voltage         = 1.4697e-05      sq v/hz
                                         = 3.8337e-03      v/rt hz

       transfer function value:
        v(out)/vin                       = 1.9979e+00     
      equivalent input noise at vin                           
                                         = 1.9188e-03      /rt hz
 


 **** the results of the sqrt of integral (v**2 / freq)
      from fstart upto  1.2303e-01      hz. using more freq points 
      results in more accurate total noise values.     

 **** total output noise voltage   =  6.1215e-04      volts         

  **** total equivalent input noise =  3.0639e-04                    



 ******  
 $irn

 ****** noise analysis tnom=  25.000 temp=  25.000 ******
 

====== Noise output port at: v(out)                          ======
 
     frequency = 1.2589e-01      hz

  
 Element Source Noise (V^2/Hz) Source Value (A^2/Hz) Source rx (Ohm) Integrated noise (V) 
 xirn.m3 TOT    6.954114e-06                                         4.490017e-04         
         rd     0.             0.                    0.              0.                   
         rs     0.             0.                    0.              0.                   
         id     5.697149e-16   1.38159e-24           2.030673e+04    3.840751e-09         
         fn     6.954114e-06   1.686405e-14          2.030673e+04    4.490017e-04         
 xirn.m1 TOT    6.952154e-06                                         4.489384e-04         
         rd     0.             0.                    0.              0.                   
         rs     0.             0.                    0.              0.                   
         id     5.699164e-16   1.3809e-24            2.031537e+04    3.841430e-09         
         fn     6.952154e-06   1.684496e-14          2.031537e+04    4.489384e-04         
 xirn.m2 TOT    2.309119e-07                                         8.181824e-05         
         rd     0.             0.                    0.              0.                   
         rs     0.             0.                    0.              0.                   
         id     2.674116e-16   6.39507e-25           2.044878e+04    2.631343e-09         
         fn     2.309118e-07   5.522190e-16          2.044878e+04    8.181824e-05         
 xirn.m4 TOT    2.244498e-07                                         8.066528e-05         
         rd     0.             0.                    0.              0.                   
         rs     0.             0.                    0.              0.                   
         id     2.600492e-16   6.39e-25              2.017331e+04    2.594867e-09         
         fn     2.244498e-07   5.515244e-16          2.017331e+04    8.066528e-05         
 xirn.m5 TOT    6.346788e-10                                         4.289474e-06         
         rd     0.             0.                    0.              0.                   
         rs     0.             0.                    0.              0.                   
         id     9.53346e-20    4.72432e-24           1.420546e+02    4.968354e-11         
         fn     6.346788e-10   3.145163e-14          1.420546e+02    4.289474e-06         
 xirn.m7 TOT    6.694112e-11                                         1.393072e-06         
         rd     0.             0.                    0.              0.                   
         rs     0.             0.                    0.              0.                   
         id     1.25389e-20    4.63627e-23           1.644543e+01    1.801843e-11         
         fn     6.694112e-11   2.475154e-13          1.644543e+01    1.393072e-06         
 xirn.m8 TOT    1.126390e-11                                         5.714409e-07         
         rd     0.             0.                    0.              0.                   
         rs     0.             0.                    0.              0.                   
         id     1.6979e-21     4.66302e-24           1.908190e+01    6.630448e-12         
         fn     1.126390e-11   3.093465e-14          1.908190e+01    5.714409e-07         
 xirn.m6 TOT    2.954024e-12                                         2.926403e-07         
         rd     0.             0.                    0.              0.                   
         rs     0.             0.                    0.              0.                   
         id     3.11047e-21    1.1501e-23            1.644543e+01    8.974290e-12         
         fn     2.954024e-12   1.092253e-14          1.644543e+01    2.926403e-07         
 xirn.r1 TOT    5.21333e-23                                          1.161837e-12         
         rs     5.21333e-23    1.43177e-25           1.908190e+01    1.161837e-12         
         1/f    0.             0.                    1.908190e+01    0.                   
 r1      TOT    0.                                                   0.                   
         rs     0.             0.                    9.981145e+03    0.                   
         1/f    0.             0.                    9.981145e+03    0.                   
 r2      TOT    0.                                                   0.                   
         rs     0.             0.                    9.997590e+03    0.                   
         1/f    0.             0.                    9.997590e+03    0.                   
 



 **** total output noise voltage         = 1.4362e-05      sq v/hz
                                         = 3.7898e-03      v/rt hz

       transfer function value:
        v(out)/vin                       = 1.9979e+00     
      equivalent input noise at vin                           
                                         = 1.8968e-03      /rt hz
 


 **** the results of the sqrt of integral (v**2 / freq)
      from fstart upto  1.2589e-01      hz. using more freq points 
      results in more accurate total noise values.     

 **** total output noise voltage   =  6.4527e-04      volts         

  **** total equivalent input noise =  3.2296e-04                    



 ******  
 $irn

 ****** noise analysis tnom=  25.000 temp=  25.000 ******
 

====== Noise output port at: v(out)                          ======
 
     frequency = 1.2882e-01      hz

  
 Element Source Noise (V^2/Hz) Source Value (A^2/Hz) Source rx (Ohm) Integrated noise (V) 
 xirn.m3 TOT    6.795819e-06                                         4.709169e-04         
         rd     0.             0.                    0.              0.                   
         rs     0.             0.                    0.              0.                   
         id     5.697149e-16   1.38159e-24           2.030673e+04    4.052408e-09         
         fn     6.795819e-06   1.648018e-14          2.030673e+04    4.709169e-04         
 xirn.m1 TOT    6.793904e-06                                         4.708505e-04         
         rd     0.             0.                    0.              0.                   
         rs     0.             0.                    0.              0.                   
         id     5.699164e-16   1.3809e-24            2.031537e+04    4.053124e-09         
         fn     6.793904e-06   1.646152e-14          2.031537e+04    4.708505e-04         
 xirn.m2 TOT    2.256557e-07                                         8.581170e-05         
         rd     0.             0.                    0.              0.                   
         rs     0.             0.                    0.              0.                   
         id     2.674116e-16   6.39507e-25           2.044878e+04    2.776351e-09         
         fn     2.256557e-07   5.396489e-16          2.044878e+04    8.581170e-05         
 xirn.m4 TOT    2.193407e-07                                         8.460246e-05         
         rd     0.             0.                    0.              0.                   
         rs     0.             0.                    0.              0.                   
         id     2.600492e-16   6.39e-25              2.017331e+04    2.737866e-09         
         fn     2.193407e-07   5.389702e-16          2.017331e+04    8.460246e-05         
 xirn.m5 TOT    6.202317e-10                                         4.498838e-06         
         rd     0.             0.                    0.              0.                   
         rs     0.             0.                    0.              0.                   
         id     9.53346e-20    4.72432e-24           1.420546e+02    5.242151e-11         
         fn     6.202317e-10   3.073570e-14          1.420546e+02    4.498838e-06         
 xirn.m7 TOT    6.541735e-11                                         1.461066e-06         
         rd     0.             0.                    0.              0.                   
         rs     0.             0.                    0.              0.                   
         id     1.25389e-20    4.63627e-23           1.644543e+01    1.901139e-11         
         fn     6.541735e-11   2.418813e-13          1.644543e+01    1.461066e-06         
 xirn.m8 TOT    1.100750e-11                                         5.993323e-07         
         rd     0.             0.                    0.              0.                   
         rs     0.             0.                    0.              0.                   
         id     1.6979e-21     4.66302e-24           1.908190e+01    6.995840e-12         
         fn     1.100750e-11   3.023049e-14          1.908190e+01    5.993323e-07         
 xirn.m6 TOT    2.886783e-12                                         3.069237e-07         
         rd     0.             0.                    0.              0.                   
         rs     0.             0.                    0.              0.                   
         id     3.11047e-21    1.1501e-23            1.644543e+01    9.468846e-12         
         fn     2.886783e-12   1.067391e-14          1.644543e+01    3.069237e-07         
 xirn.r1 TOT    5.21333e-23                                          1.225863e-12         
         rs     5.21333e-23    1.43177e-25           1.908190e+01    1.225863e-12         
         1/f    0.             0.                    1.908190e+01    0.                   
 r1      TOT    0.                                                   0.                   
         rs     0.             0.                    9.981145e+03    0.                   
         1/f    0.             0.                    9.981145e+03    0.                   
 r2      TOT    0.                                                   0.                   
         rs     0.             0.                    9.997590e+03    0.                   
         1/f    0.             0.                    9.997590e+03    0.                   
 



 **** total output noise voltage         = 1.4035e-05      sq v/hz
                                         = 3.7464e-03      v/rt hz

       transfer function value:
        v(out)/vin                       = 1.9979e+00     
      equivalent input noise at vin                           
                                         = 1.8751e-03      /rt hz
 


 **** the results of the sqrt of integral (v**2 / freq)
      from fstart upto  1.2882e-01      hz. using more freq points 
      results in more accurate total noise values.     

 **** total output noise voltage   =  6.7676e-04      volts         

  **** total equivalent input noise =  3.3872e-04                    



 ******  
 $irn

 ****** noise analysis tnom=  25.000 temp=  25.000 ******
 

====== Noise output port at: v(out)                          ======
 
     frequency = 1.3183e-01      hz

  
 Element Source Noise (V^2/Hz) Source Value (A^2/Hz) Source rx (Ohm) Integrated noise (V) 
 xirn.m3 TOT    6.641128e-06                                         4.918567e-04         
         rd     0.             0.                    0.              0.                   
         rs     0.             0.                    0.              0.                   
         id     5.697149e-16   1.38159e-24           2.030673e+04    4.258117e-09         
         fn     6.641128e-06   1.610504e-14          2.030673e+04    4.918567e-04         
 xirn.m1 TOT    6.639256e-06                                         4.917874e-04         
         rd     0.             0.                    0.              0.                   
         rs     0.             0.                    0.              0.                   
         id     5.699164e-16   1.3809e-24            2.031537e+04    4.258870e-09         
         fn     6.639256e-06   1.608681e-14          2.031537e+04    4.917874e-04         
 xirn.m2 TOT    2.205191e-07                                         8.962739e-05         
         rd     0.             0.                    0.              0.                   
         rs     0.             0.                    0.              0.                   
         id     2.674116e-16   6.39507e-25           2.044878e+04    2.917285e-09         
         fn     2.205191e-07   5.273650e-16          2.044878e+04    8.962739e-05         
 xirn.m4 TOT    2.143479e-07                                         8.836439e-05         
         rd     0.             0.                    0.              0.                   
         rs     0.             0.                    0.              0.                   
         id     2.600492e-16   6.39e-25              2.017331e+04    2.876846e-09         
         fn     2.143479e-07   5.267017e-16          2.017331e+04    8.836439e-05         
 xirn.m5 TOT    6.061135e-10                                         4.698883e-06         
         rd     0.             0.                    0.              0.                   
         rs     0.             0.                    0.              0.                   
         id     9.53346e-20    4.72432e-24           1.420546e+02    5.508255e-11         
         fn     6.061135e-10   3.003607e-14          1.420546e+02    4.698883e-06         
 xirn.m7 TOT    6.392827e-11                                         1.526034e-06         
         rd     0.             0.                    0.              0.                   
         rs     0.             0.                    0.              0.                   
         id     1.25389e-20    4.63627e-23           1.644543e+01    1.997645e-11         
         fn     6.392827e-11   2.363754e-13          1.644543e+01    1.526034e-06         
 xirn.m8 TOT    1.075694e-11                                         6.259822e-07         
         rd     0.             0.                    0.              0.                   
         rs     0.             0.                    0.              0.                   
         id     1.6979e-21     4.66302e-24           1.908190e+01    7.350965e-12         
         fn     1.075694e-11   2.954236e-14          1.908190e+01    6.259822e-07         
 xirn.m6 TOT    2.821071e-12                                         3.205713e-07         
         rd     0.             0.                    0.              0.                   
         rs     0.             0.                    0.              0.                   
         id     3.11047e-21    1.1501e-23            1.644543e+01    9.949507e-12         
         fn     2.821071e-12   1.043094e-14          1.644543e+01    3.205713e-07         
 xirn.r1 TOT    5.21333e-23                                          1.288091e-12         
         rs     5.21333e-23    1.43177e-25           1.908190e+01    1.288091e-12         
         1/f    0.             0.                    1.908190e+01    0.                   
 r1      TOT    0.                                                   0.                   
         rs     0.             0.                    9.981145e+03    0.                   
         1/f    0.             0.                    9.981145e+03    0.                   
 r2      TOT    0.                                                   0.                   
         rs     0.             0.                    9.997590e+03    0.                   
         1/f    0.             0.                    9.997590e+03    0.                   
 



 **** total output noise voltage         = 1.3716e-05      sq v/hz
                                         = 3.7035e-03      v/rt hz

       transfer function value:
        v(out)/vin                       = 1.9979e+00     
[...]



 **** resistors

 subckt                           xgain      
 element   0:rl        0:rf        1:r1      
  r value  2.0000e+04  1.0000e+12  1.1500e+05
  v drop  -2.7626e-04 -1.0032e-13  2.4895e+00
  current -1.3813e-08 -1.0032e-25  2.1648e-05
  power    3.8160e-12  1.0065e-38  5.3892e-05



 **** mosfets


 subckt   xgain       xgain       xgain       xgain       xgain      
 element   1:m1        1:m2        1:m3        1:m4        1:m5      
 model     0:cmosn     0:cmosp     0:cmosn     0:cmosp     0:cmosn   
 region     Saturatio   Saturatio   Saturatio   Saturatio   Saturatio
  id       1.1018e-05 -1.1032e-05  1.1032e-05 -1.1018e-05  2.2050e-05
  ibs      0.0000e+00  0.0000e+00  0.0000e+00  0.0000e+00  0.0000e+00
  ibd      0.0000e+00  0.0000e+00  0.0000e+00  0.0000e+00  0.0000e+00
  vgs      6.1738e-01 -8.6115e-01  6.1765e-01 -8.6115e-01  5.1050e-01
  vds      1.2565e+00 -9.0409e-01  1.2135e+00 -8.6115e-01  8.8235e-01
  vbs      0.0000e+00  0.0000e+00  0.0000e+00  0.0000e+00  0.0000e+00
  vth      3.9551e-01 -3.9726e-01  3.9554e-01 -3.9730e-01  3.9642e-01
  vdsat    1.6873e-01 -3.5847e-01  1.6889e-01 -3.5843e-01  9.8505e-02
  vod      2.2187e-01 -4.6389e-01  2.2211e-01 -4.6384e-01  1.1407e-01
  beta     5.7353e-04  1.3051e-04  5.7354e-04  1.3051e-04  4.0723e-03
  gam eff  5.7629e-01  5.3051e-01  5.7629e-01  5.3051e-01  5.7677e-01
  gm       9.8343e-05  4.3637e-05  9.8390e-05  4.3595e-05  3.3486e-04
  gds      3.0834e-07  3.2019e-07  3.1078e-07  3.2673e-07  1.0171e-06
  gmb      2.7149e-05  1.4303e-05  2.7163e-05  1.4291e-05  9.4516e-05
  cdtot    3.2311e-15  2.9660e-15  3.2313e-15  2.9713e-15  2.3051e-14
  cgtot    5.8121e-14  5.6202e-14  5.8122e-14  5.6208e-14  4.0486e-13
  cstot    3.0657e-14  3.0293e-14  3.0658e-14  3.0296e-14  2.1140e-13
  cbtot    1.6237e-14  1.5374e-14  1.6236e-14  1.5375e-14  1.1788e-13
  cgs      5.1770e-14  5.1179e-14  5.1772e-14  5.1184e-14  3.5417e-13
  cgd      3.2050e-15  2.9382e-15  3.2053e-15  2.9443e-15  2.2870e-14



 subckt   xgain       xgain       xgain      
 element   1:m6        1:m7        1:m8      
 model     0:cmosp     0:cmosn     0:cmosn   
 region     Saturatio   Saturatio   Saturatio
  id      -2.1822e-04  2.1824e-04  2.1648e-05
  ibs      0.0000e+00  0.0000e+00  0.0000e+00
  ibd      0.0000e+00  0.0000e+00  0.0000e+00
  vgs     -9.0409e-01  5.1050e-01  5.1050e-01
  vds     -1.5002e+00  1.4997e+00  5.1050e-01
  vbs      0.0000e+00  0.0000e+00  0.0000e+00
  vth     -3.9662e-01  3.9598e-01  3.9675e-01
  vdsat   -3.9728e-01  9.8862e-02  9.8311e-02
  vod     -5.0747e-01  1.1452e-01  1.1375e-01
  beta     2.1045e-03  3.9236e-02  4.0724e-03
  gam eff  5.3077e-01  5.7684e-01  5.7677e-01
  gm       7.8191e-04  3.2872e-03  3.3031e-04
  gds      5.3006e-06  9.3540e-06  1.2040e-06
  gmb      2.6057e-04  9.2711e-04  9.3286e-05
  cdtot    4.8192e-14  2.2192e-13  2.3151e-14
  cgtot    9.1517e-13  3.9006e-12  4.0501e-13
  cstot    4.9597e-13  2.0371e-12  2.1152e-13
  cbtot    2.5073e-13  1.1358e-12  1.1795e-13
  cgs      8.3523e-13  3.4123e-12  3.5424e-13
  cgd      4.7706e-14  2.2016e-13  2.2979e-14



 ******
 $gain

 ****** ac analysis tnom=  25.000 temp=  25.000 ******
 dcgain= 1.8791e+03
 dcgain_db= 6.5479e+01
 half_dcgain_db= 3.2740e+01
 half_dcgain_db_freq= 7.9600e+05
 gain_bandwidth_cond1= 3.4506e+07
 unity_gain_freq= 2.3166e+07
 gain_bandwidth= 2.3166e+07
 phase_cond1=-1.2557e+02
 phase_margin_cond1= 5.4426e+01
 phase_max=-1.4001e-04    at= 1.0000e-01
             from= 1.0000e-01    to= 2.3166e+07
 phase_at_0freq=-1.4001e-04
 phase_margin_cond2= 1.8000e+02
 phase_margin= 5.4426e+01

          ***** job concluded
 ******  
 $gain

 ****** job statistics summary tnom=  25.000 temp=  25.000 ******

  ******  Circuit Statistics  ******
  # nodes       =      10 # elements   =      16
  # resistors   =       3 # capacitors =       2 # inductors   =       0
  # mutual_inds =       0 # vccs       =       0 # vcvs        =       0
  # cccs        =       0 # ccvs       =       0 # volt_srcs   =       3
  # curr_srcs   =       0 # diodes     =       0 # bjts        =       0
  # jfets       =       0 # mosfets    =       8 # U elements  =       0
  # T elements  =       0 # W elements =       0 # B elements  =       0
  # S elements  =       0 # P elements =       0 # va device   =       0
  # vector_srcs =       0 # N elements =       0


  ******  Runtime Statistics (seconds)  ******

  analysis           time    # points   tot. iter  conv.iter
  op point           0.00           1          70
  ac analysis        0.03        1101        1101
  readin             0.00
  errchk             0.00
  setup              0.00
  output             0.00


           peak memory used        296.03 megabytes
           total cpu time            0.03 seconds
           total elapsed time        0.03 seconds
           job started at     11:06:27 03/30/2021
           job ended   at     11:06:29 03/30/2021


 ******  
 $sr1

 ****** circuit name directory
 circuit number to circuit name directory
   number circuitname                     definition         multiplier
        0 main circuit
        1 x1a.                            opamp              1.00 
        2 x1b.                            opamp              1.00 
        3 x1c.                            opamp              1.00 
  
      
 *****************************************************************
 ******  option summary
 ******
 runlvl  = 3         bypass  = 2.00000   
  Opening plot unit= 15
 file=hspice1.pa2

 ******
 $sr1

 ****** dc transfer curves tnom=  25.000 temp=  25.000 ******
x

 volt          param                              param                             
              abs(v(out1,os)-v(in1)*gain)/v(in1) abs(v(out2,os)-v(in2)*gain)/v(in2) 
  1.00000e-02  2.0294e-03                        -2.0286e-03                        
  2.00000e-02  2.0299e-03                        -2.0284e-03                        
  3.00000e-02  2.0305e-03                        -2.0282e-03                        
  4.00000e-02  2.0311e-03                        -2.0281e-03                        
  5.00000e-02  2.0319e-03                        -2.0281e-03                        
  6.00000e-02  2.0328e-03                        -2.0282e-03                        
  7.00000e-02  2.0338e-03                        -2.0283e-03                        
  8.00000e-02  2.0349e-03                        -2.0285e-03                        
  9.00000e-02  2.0361e-03                        -2.0288e-03                        
  1.00000e-01  2.0375e-03                        -2.0291e-03                        
  1.10000e-01  2.0389e-03                        -2.0295e-03                        
  1.20000e-01  2.0405e-03                        -2.0300e-03                        
  1.30000e-01  2.0422e-03                        -2.0305e-03                        
  1.40000e-01  2.0441e-03                        -2.0311e-03                        
  1.50000e-01  2.0461e-03                        -2.0317e-03                        
  1.60000e-01  2.0482e-03                        -2.0324e-03                        
  1.70000e-01  2.0505e-03                        -2.0332e-03                        
  1.80000e-01  2.0530e-03                        -2.0340e-03                        
  1.90000e-01  2.0557e-03                        -2.0349e-03                        
  2.00000e-01  2.0585e-03                        -2.0358e-03                        
  2.10000e-01  2.0615e-03                        -2.0368e-03                        
  2.20000e-01  2.0648e-03                        -2.0378e-03                        
  2.30000e-01  2.0682e-03                        -2.0389e-03                        
  2.40000e-01  2.0719e-03                        -2.0400e-03                        
  2.50000e-01  2.0758e-03                        -2.0412e-03                        
  2.60000e-01  2.0800e-03                        -2.0425e-03                        
  2.70000e-01  2.0844e-03                        -2.0437e-03                        
  2.80000e-01  2.0891e-03                        -2.0451e-03                        
  2.90000e-01  2.0942e-03                        -2.0465e-03                        
  3.00000e-01  2.0995e-03                        -2.0479e-03                        
  3.10000e-01  2.1052e-03                        -2.0494e-03                        
  3.20000e-01  2.1113e-03                        -2.0509e-03                        
  3.30000e-01  2.1178e-03                        -2.0525e-03                        
  3.40000e-01  2.1247e-03                        -2.0541e-03                        
  3.50000e-01  2.1322e-03                        -2.0558e-03                        
  3.60000e-01  2.1401e-03                        -2.0575e-03                        
  3.70000e-01  2.1486e-03                        -2.0593e-03                        
  3.80000e-01  2.1578e-03                        -2.0611e-03                        
  3.90000e-01  2.1677e-03                        -2.0630e-03                        
  4.00000e-01  2.1784e-03                        -2.0649e-03                        
  4.10000e-01  2.1900e-03                        -2.0669e-03                        
  4.20000e-01  2.2028e-03                        -2.0690e-03                        
  4.30000e-01  2.2168e-03                        -2.0711e-03                        
  4.40000e-01  2.2324e-03                        -2.0733e-03                        
  4.50000e-01  2.2499e-03                        -2.0756e-03                        
  4.60000e-01  2.2698e-03                        -2.0779e-03                        
  4.70000e-01  2.2930e-03                        -2.0803e-03                        
  4.80000e-01  2.3204e-03                        -2.0828e-03                        
  4.90000e-01  2.3537e-03                        -2.0854e-03                        
  5.00000e-01  2.3953e-03                        -2.0881e-03                        
  5.10000e-01  2.4484e-03                        -2.0909e-03                        
  5.20000e-01  2.5180e-03                        -2.0939e-03                        
  5.30000e-01  2.6104e-03                        -2.0970e-03                        
  5.40000e-01  2.7336e-03                        -2.1003e-03                        
  5.50000e-01  2.8973e-03                        -2.1038e-03                        
  5.60000e-01  3.1133e-03                        -2.1076e-03                        
  5.70000e-01  3.3957e-03                        -2.1116e-03                        
  5.80000e-01  3.7631e-03                        -2.1161e-03                        
  5.90000e-01  4.2414e-03                        -2.1211e-03                        
  6.00000e-01  4.8696e-03                        -2.1267e-03                        
  6.10000e-01  5.7130e-03                        -2.1332e-03                        
  6.20000e-01  6.8948e-03                        -2.1409e-03                        
  6.30000e-01  8.6912e-03                        -2.1504e-03                        
  6.40000e-01  1.1875e-02                        -2.1624e-03                        
  6.50000e-01  1.8909e-02                        -2.1784e-03                        
  6.60000e-01  3.3720e-02                        -2.2009e-03                        
  6.70000e-01  5.4741e-02                        -2.2350e-03                        
  6.80000e-01  7.8282e-02                        -2.2909e-03                        
  6.90000e-01  1.0265e-01                        -2.3905e-03                        
  7.00000e-01  1.2716e-01                        -2.5809e-03                        
  7.10000e-01  1.5151e-01                        -2.9510e-03                        
  7.20000e-01  1.7554e-01                        -3.6448e-03                        
  7.30000e-01  1.9917e-01                        -4.9299e-03                        
  7.40000e-01  2.2235e-01                        -8.4932e-03                        
  7.50000e-01  2.4506e-01                        -3.1390e-02                        
  7.60000e-01  2.6729e-01                        -5.7236e-02                        
  7.70000e-01  2.8904e-01                        -8.2454e-02                        
  7.80000e-01  3.1031e-01                        -1.0703e-01                        
  7.90000e-01  3.3110e-01                        -1.3099e-01                        
  8.00000e-01  3.5143e-01                        -1.5435e-01                        
  8.10000e-01  3.7130e-01                        -1.7714e-01                        
  8.20000e-01  3.9072e-01                        -1.9937e-01                        
  8.30000e-01  4.0971e-01                        -2.2106e-01                        
  8.40000e-01  4.2828e-01                        -2.4224e-01                        
  8.50000e-01  4.4644e-01                        -2.6292e-01                        
  8.60000e-01  4.6419e-01                        -2.8312e-01                        
  8.70000e-01  4.8156e-01                        -3.0285e-01                        
  8.80000e-01  4.9855e-01                        -3.2214e-01                        
  8.90000e-01  5.1518e-01                        -3.4099e-01                        
  9.00000e-01  5.3145e-01                        -3.5942e-01                        
  9.10000e-01  5.4738e-01                        -3.7745e-01                        
  9.20000e-01  5.6297e-01                        -3.9509e-01                        
  9.30000e-01  5.7824e-01                        -4.1235e-01                        
  9.40000e-01  5.9319e-01                        -4.2924e-01                        
  9.50000e-01  6.0784e-01                        -4.4577e-01                        
  9.60000e-01  6.2219e-01                        -4.6196e-01                        
  9.70000e-01  6.3625e-01                        -4.7782e-01                        
  9.80000e-01  6.5003e-01                        -4.9335e-01                        
  9.90000e-01  6.6354e-01                        -5.0857e-01                        
  1.00000e+00  6.7678e-01                        -5.2348e-01                        
  1.01000e+00  6.8977e-01                        -5.3810e-01                        
  1.02000e+00  7.0250e-01                        -5.5243e-01                        
  1.03000e+00  7.1500e-01                        -5.6649e-01                        
  1.04000e+00  7.2726e-01                        -5.8027e-01                        
  1.05000e+00  7.3928e-01                        -5.9379e-01                        
  1.06000e+00  7.5109e-01                        -6.0706e-01                        
  1.07000e+00  7.6268e-01                        -6.2008e-01                        
  1.08000e+00  7.7406e-01                        -6.3285e-01                        
  1.09000e+00  7.8523e-01                        -6.4540e-01                        
  1.10000e+00  7.9620e-01                        -6.5771e-01                        
  1.11000e+00  8.0697e-01                        -6.6980e-01                        
  1.12000e+00  8.1756e-01                        -6.8168e-01                        
  1.13000e+00  8.2796e-01                        -6.9335e-01                        
  1.14000e+00  8.3818e-01                        -7.0481e-01                        
  1.15000e+00  8.4822e-01                        -7.1607e-01                        
  1.16000e+00  8.5810e-01                        -7.2714e-01                        
  1.17000e+00  8.6780e-01                        -7.3802e-01                        
  1.18000e+00  8.7735e-01                        -7.4871e-01                        
  1.19000e+00  8.8673e-01                        -7.5923e-01                        
  1.20000e+00  8.9596e-01                        -7.6957e-01                        
  1.21000e+00  9.0504e-01                        -7.7974e-01                        
  1.22000e+00  9.1397e-01                        -7.8974e-01                        
  1.23000e+00  9.2276e-01                        -7.9958e-01                        
  1.24000e+00  9.3141e-01                        -8.0926e-01                        
  1.25000e+00  9.3992e-01                        -8.1879e-01                        
  1.26000e+00  9.4830e-01                        -8.2816e-01                        
  1.27000e+00  9.5654e-01                        -8.3739e-01                        
  1.28000e+00  9.6466e-01                        -8.4647e-01                        
  1.29000e+00  9.7265e-01                        -8.5541e-01                        
  1.30000e+00  9.8052e-01                        -8.6422e-01                        
  1.31000e+00  9.8827e-01                        -8.7289e-01                        
  1.32000e+00  9.9591e-01                        -8.8143e-01                        
  1.33000e+00  1.0034e+00                        -8.8984e-01                        
  1.34000e+00  1.0108e+00                        -8.9812e-01                        
  1.35000e+00  1.0181e+00                        -9.0628e-01                        
  1.36000e+00  1.0253e+00                        -9.1433e-01                        
  1.37000e+00  1.0324e+00                        -9.2225e-01                        
  1.38000e+00  1.0394e+00                        -9.3006e-01                        
  1.39000e+00  1.0463e+00                        -9.3776e-01                        
  1.40000e+00  1.0531e+00                        -9.4534e-01                        
  1.41000e+00  1.0598e+00                        -9.5282e-01                        
  1.42000e+00  1.0664e+00                        -9.6020e-01                        
  1.43000e+00  1.0729e+00                        -9.6747e-01                        
  1.44000e+00  1.0793e+00                        -9.7464e-01                        
  1.45000e+00  1.0856e+00                        -9.8171e-01                        
  1.46000e+00  1.0919e+00                        -9.8869e-01                        
  1.47000e+00  1.0980e+00                        -9.9557e-01                        
  1.48000e+00  1.1041e+00                        -1.0024e+00                        
  1.49000e+00  1.1101e+00                        -1.0090e+00                        
  1.50000e+00  1.1160e+00                        -1.0157e+00                        
y

          ***** job concluded
 ******  
 $sr1

 ****** job statistics summary tnom=  25.000 temp=  25.000 ******

  ******  Circuit Statistics  ******
  # nodes       =      23 # elements   =      40
  # resistors   =       9 # capacitors =       3 # inductors   =       0
  # mutual_inds =       0 # vccs       =       0 # vcvs        =       1
  # cccs        =       0 # ccvs       =       0 # volt_srcs   =       3
  # curr_srcs   =       0 # diodes     =       0 # bjts        =       0
  # jfets       =       0 # mosfets    =      24 # U elements  =       0
  # T elements  =       0 # W elements =       0 # B elements  =       0
  # S elements  =       0 # P elements =       0 # va device   =       0
  # vector_srcs =       0 # N elements =       0


  ******  Runtime Statistics (seconds)  ******

  analysis           time    # points   tot. iter  conv.iter
  op point           0.00           1           0
  dc sweep           0.06         150         352
  readin             0.01
  errchk             0.00
  setup              0.00
  output             0.00


           peak memory used        296.03 megabytes
           total cpu time            0.08 seconds
           total elapsed time        0.04 seconds
           job started at     11:06:27 03/30/2021
           job ended   at     11:06:29 03/30/2021


 lic: Release hspice token(s) 
 lic: total license checkout elapse time:        0.58(s)
